LTspice 24.0.12 for Windows
Circuit: * C:\Drive\GITHUB\Negative_Inductance\ferro_Ind_spice\ferromag_ind_pos_ind.asc
Start Time: Sun May 25 11:37:43 2025
solver = Normal
Maximum thread count: 8
tnom = 27
temp = 27
method = modified trap
v1: Removing PWL point (0.00034688,1e-06)
v1: Removing PWL point (0.0003488,1.01e-06)
v1: Removing PWL point (0.000352,1.02e-06)
v1: Removing PWL point (0.0003552,1.03e-06)
v1: Removing PWL point (0.0003584,1.04e-06)
v1: Removing PWL point (0.00036192,1.05e-06)
v1: Removing PWL point (0.0003648,1.06e-06)
v1: Removing PWL point (0.000368,1.07e-06)
v1: Removing PWL point (0.00037152,1.08e-06)
v1: Removing PWL point (0.000376,1.09e-06)
v1: Removing PWL point (0.0003792,1.1e-06)
v1: Removing PWL point (0.00038208,1.11e-06)
v1: Removing PWL point (0.00038496,1.12e-06)
v1: Removing PWL point (0.00038912,1.13e-06)
v1: Removing PWL point (0.00039232,1.14e-06)
v1: Removing PWL point (0.00039584,1.15e-06)
v1: Removing PWL point (0.00039936,1.16e-06)
v1: Removing PWL point (0.0004032,1.17e-06)
v1: Removing PWL point (0.00040672,1.18e-06)
v1: Removing PWL point (0.00041056,1.19e-06)
v1: Removing PWL point (0.00041344,1.2e-06)
v1: Removing PWL point (0.00041696,1.21e-06)
v1: Removing PWL point (0.00042176,1.22e-06)
v1: Removing PWL point (0.00042496,1.23e-06)
v1: Removing PWL point (0.00042912,1.24e-06)
v1: Removing PWL point (0.00043232,1.25e-06)
v1: Removing PWL point (0.00043552,1.26e-06)
v1: Removing PWL point (0.00043936,1.27e-06)
v1: Removing PWL point (0.00044352,1.28e-06)
v1: Removing PWL point (0.000448,1.29e-06)
v1: Removing PWL point (0.0004512,1.3e-06)
v1: Removing PWL point (0.00045536,1.31e-06)
v1: Removing PWL point (0.00045888,1.32e-06)
v1: Removing PWL point (0.00046208,1.33e-06)
v1: Removing PWL point (0.0004656,1.34e-06)
v1: Removing PWL point (0.00046912,1.35e-06)
v1: Removing PWL point (0.000472,1.36e-06)
v1: Removing PWL point (0.00047424,1.37e-06)
v1: Removing PWL point (0.0004768,1.38e-06)
v1: Removing PWL point (0.00047968,1.39e-06)
v1: Removing PWL point (0.00048288,1.4e-06)
v1: Removing PWL point (0.00048576,1.41e-06)
v1: Removing PWL point (0.00048896,1.42e-06)
v1: Removing PWL point (0.0004928,1.43e-06)
v1: Removing PWL point (0.00049664,1.44e-06)
v1: Removing PWL point (0.00049984,1.45e-06)
v1: Removing PWL point (0.00050336,1.46e-06)
v1: Removing PWL point (0.00050688,1.47e-06)
v1: Removing PWL point (0.0005104,1.48e-06)
v1: Removing PWL point (0.00051392,1.49e-06)
v1: Removing PWL point (0.00051744,1.5e-06)
v1: Removing PWL point (0.00052032,1.51e-06)
v1: Removing PWL point (0.00052384,1.52e-06)
v1: Removing PWL point (0.00052736,1.53e-06)
v1: Removing PWL point (0.00053184,1.54e-06)
v1: Removing PWL point (0.00053568,1.55e-06)
v1: Removing PWL point (0.00054016,1.56e-06)
v1: Removing PWL point (0.00054368,1.57e-06)
v1: Removing PWL point (0.00054752,1.58e-06)
v1: Removing PWL point (0.00055104,1.59e-06)
v1: Removing PWL point (0.00055456,1.6e-06)
v1: Removing PWL point (0.00055904,1.61e-06)
v1: Removing PWL point (0.00056288,1.62e-06)
v1: Removing PWL point (0.00056608,1.63e-06)
v1: Removing PWL point (0.00056928,1.64e-06)
v1: Removing PWL point (0.00057248,1.65e-06)
v1: Removing PWL point (0.00057632,1.66e-06)
v1: Removing PWL point (0.0005808,1.67e-06)
v1: Removing PWL point (0.00058368,1.68e-06)
v1: Removing PWL point (0.00058656,1.69e-06)
v1: Removing PWL point (0.00058976,1.7e-06)
v1: Removing PWL point (0.00059424,1.71e-06)
v1: Removing PWL point (0.0005984,1.72e-06)
v1: Removing PWL point (0.00060192,1.73e-06)
v1: Removing PWL point (0.00060512,1.74e-06)
v1: Removing PWL point (0.00060832,1.75e-06)
v1: Removing PWL point (0.00061184,1.76e-06)
v1: Removing PWL point (0.00061632,1.77e-06)
v1: Removing PWL point (0.00061952,1.78e-06)
v1: Removing PWL point (0.00062272,1.79e-06)
v1: Removing PWL point (0.00062624,1.8e-06)
v1: Removing PWL point (0.0006304,1.81e-06)
v1: Removing PWL point (0.00063424,1.82e-06)
v1: Removing PWL point (0.00063744,1.83e-06)
v1: Removing PWL point (0.00064096,1.84e-06)
v1: Removing PWL point (0.00064416,1.85e-06)
v1: Removing PWL point (0.00064704,1.86e-06)
v1: Removing PWL point (0.00064992,1.87e-06)
v1: Removing PWL point (0.00065344,1.88e-06)
v1: Removing PWL point (0.00065728,1.89e-06)
v1: Removing PWL point (0.00066048,1.9e-06)
v1: Removing PWL point (0.00066368,1.91e-06)
v1: Removing PWL point (0.0006672,1.92e-06)
v1: Removing PWL point (0.00067136,1.93e-06)
v1: Removing PWL point (0.00067552,1.94e-06)
v1: Removing PWL point (0.00067936,1.95e-06)
v1: Removing PWL point (0.00068288,1.96e-06)
v1: Removing PWL point (0.00068608,1.97e-06)
v1: Removing PWL point (0.00068864,1.98e-06)
v1: Removing PWL point (0.00069216,1.99e-06)
v1: Removing PWL point (0.00069568,2e-06)
v1: Removing PWL point (0.00069856,2.01e-06)
v1: Removing PWL point (0.00070208,2.02e-06)
v1: Removing PWL point (0.0007056,2.03e-06)
v1: Removing PWL point (0.00070912,2.04e-06)
v1: Removing PWL point (0.00071296,2.05e-06)
v1: Removing PWL point (0.00071712,2.06e-06)
v1: Removing PWL point (0.00072032,2.07e-06)
v1: Removing PWL point (0.00072384,2.08e-06)
v1: Removing PWL point (0.00072736,2.09e-06)
v1: Removing PWL point (0.00073088,2.1e-06)
v1: Removing PWL point (0.00073504,2.11e-06)
v1: Removing PWL point (0.00074016,2.12e-06)
v1: Removing PWL point (0.00074368,2.13e-06)
v1: Removing PWL point (0.0007472,2.14e-06)
v1: Removing PWL point (0.00075072,2.15e-06)
v1: Removing PWL point (0.00075392,2.16e-06)
v1: Removing PWL point (0.00075776,2.17e-06)
v1: Removing PWL point (0.00076128,2.18e-06)
v1: Removing PWL point (0.00076448,2.19e-06)
v1: Removing PWL point (0.00076736,2.2e-06)
v1: Removing PWL point (0.0007712,2.21e-06)
v1: Removing PWL point (0.0007744,2.22e-06)
v1: Removing PWL point (0.00077888,2.23e-06)
v1: Removing PWL point (0.00078304,2.24e-06)
v1: Removing PWL point (0.00078784,2.25e-06)
v1: Removing PWL point (0.000792,2.26e-06)
v1: Removing PWL point (0.00079552,2.27e-06)
v1: Removing PWL point (0.00079872,2.28e-06)
v1: Removing PWL point (0.0008016,2.29e-06)
v1: Removing PWL point (0.00080544,2.3e-06)
v1: Removing PWL point (0.0008096,2.31e-06)
v1: Removing PWL point (0.00081408,2.32e-06)
v1: Removing PWL point (0.00081792,2.33e-06)
v1: Removing PWL point (0.00082272,2.34e-06)
v1: Removing PWL point (0.00082688,2.35e-06)
v1: Removing PWL point (0.00083136,2.36e-06)
v1: Removing PWL point (0.00083488,2.37e-06)
v1: Removing PWL point (0.00083808,2.38e-06)
v1: Removing PWL point (0.00084128,2.39e-06)
v1: Removing PWL point (0.00084448,2.4e-06)
v1: Removing PWL point (0.00084864,2.41e-06)
v1: Removing PWL point (0.00085216,2.42e-06)
v1: Removing PWL point (0.00085568,2.43e-06)
v1: Removing PWL point (0.00085952,2.44e-06)
v1: Removing PWL point (0.00086304,2.45e-06)
v1: Removing PWL point (0.00086688,2.46e-06)
v1: Removing PWL point (0.00087072,2.47e-06)
v1: Removing PWL point (0.00087488,2.48e-06)
v1: Removing PWL point (0.00087904,2.49e-06)
v1: Removing PWL point (0.00088288,2.5e-06)
v1: Removing PWL point (0.0008864,2.51e-06)
v1: Removing PWL point (0.00088928,2.52e-06)
v1: Removing PWL point (0.00089312,2.53e-06)
v1: Removing PWL point (0.00089696,2.54e-06)
v1: Removing PWL point (0.00090144,2.55e-06)
v1: Removing PWL point (0.00090624,2.56e-06)
v1: Removing PWL point (0.00090976,2.57e-06)
v1: Removing PWL point (0.00091488,2.58e-06)
v1: Removing PWL point (0.00091872,2.59e-06)
v1: Removing PWL point (0.00092192,2.6e-06)
v1: Removing PWL point (0.0009264,2.61e-06)
v1: Removing PWL point (0.00092992,2.62e-06)
v1: Removing PWL point (0.0009328,2.63e-06)
v1: Removing PWL point (0.00093664,2.64e-06)
v1: Removing PWL point (0.00094016,2.65e-06)
v1: Removing PWL point (0.000944,2.66e-06)
v1: Removing PWL point (0.00094784,2.67e-06)
v1: Removing PWL point (0.00095136,2.68e-06)
v1: Removing PWL point (0.00095424,2.69e-06)
v1: Removing PWL point (0.00095776,2.7e-06)
v1: Removing PWL point (0.00096128,2.71e-06)
v1: Removing PWL point (0.0009648,2.72e-06)
v1: Removing PWL point (0.00096896,2.73e-06)
v1: Removing PWL point (0.00097216,2.74e-06)
v1: Removing PWL point (0.00097568,2.75e-06)
v1: Removing PWL point (0.00097888,2.76e-06)
v1: Removing PWL point (0.0009824,2.77e-06)
v1: Removing PWL point (0.00098656,2.78e-06)
v1: Removing PWL point (0.0009904,2.79e-06)
v1: Removing PWL point (0.00099392,2.8e-06)
v1: Removing PWL point (0.0009984,2.81e-06)
v1: Removing PWL point (0.00100416,2.82e-06)
v1: Removing PWL point (0.00100832,2.83e-06)
v1: Removing PWL point (0.00101152,2.84e-06)
v1: Removing PWL point (0.0010144,2.85e-06)
v1: Removing PWL point (0.00101856,2.86e-06)
v1: Removing PWL point (0.00102208,2.87e-06)
v1: Removing PWL point (0.00102528,2.88e-06)
v1: Removing PWL point (0.00102912,2.89e-06)
v1: Removing PWL point (0.00103424,2.9e-06)
v1: Removing PWL point (0.00103808,2.91e-06)
v1: Removing PWL point (0.00104256,2.92e-06)
v1: Removing PWL point (0.0010464,2.93e-06)
v1: Removing PWL point (0.00104992,2.94e-06)
v1: Removing PWL point (0.00105344,2.95e-06)
v1: Removing PWL point (0.0010576,2.96e-06)
v1: Removing PWL point (0.00106112,2.97e-06)
v1: Removing PWL point (0.00106432,2.98e-06)
v1: Removing PWL point (0.00106848,2.99e-06)
v1: Removing PWL point (0.00107168,3e-06)
v1: Removing PWL point (0.00107584,3.01e-06)
v1: Removing PWL point (0.00108,3.02e-06)
v1: Removing PWL point (0.0010832,3.03e-06)
v1: Removing PWL point (0.00108768,3.04e-06)
v1: Removing PWL point (0.00109184,3.05e-06)
v1: Removing PWL point (0.00109664,3.06e-06)
v1: Removing PWL point (0.00110176,3.07e-06)
v1: Removing PWL point (0.00110528,3.08e-06)
v1: Removing PWL point (0.00111008,3.09e-06)
v1: Removing PWL point (0.00111392,3.1e-06)
v1: Removing PWL point (0.00111776,3.11e-06)
v1: Removing PWL point (0.00112096,3.12e-06)
v1: Removing PWL point (0.00112448,3.13e-06)
v1: Removing PWL point (0.00112896,3.14e-06)
v1: Removing PWL point (0.00113312,3.15e-06)
v1: Removing PWL point (0.00113664,3.16e-06)
v1: Removing PWL point (0.00113984,3.17e-06)
v1: Removing PWL point (0.001144,3.18e-06)
v1: Removing PWL point (0.00114848,3.19e-06)
v1: Removing PWL point (0.001152,3.2e-06)
v1: Removing PWL point (0.00115648,3.21e-06)
v1: Removing PWL point (0.00116224,3.22e-06)
v1: Removing PWL point (0.00116544,3.23e-06)
v1: Removing PWL point (0.00116864,3.24e-06)
v1: Removing PWL point (0.0011728,3.25e-06)
v1: Removing PWL point (0.00117696,3.26e-06)
v1: Removing PWL point (0.0011808,3.27e-06)
v1: Removing PWL point (0.00118496,3.28e-06)
v1: Removing PWL point (0.00118848,3.29e-06)
v1: Removing PWL point (0.00119264,3.3e-06)
v1: Removing PWL point (0.00119616,3.31e-06)
v1: Removing PWL point (0.00119968,3.32e-06)
v1: Removing PWL point (0.00120416,3.33e-06)
v1: Removing PWL point (0.00120768,3.34e-06)
v1: Removing PWL point (0.00121184,3.35e-06)
v1: Removing PWL point (0.00121632,3.36e-06)
v1: Removing PWL point (0.00122016,3.37e-06)
v1: Removing PWL point (0.00122368,3.38e-06)
v1: Removing PWL point (0.00122848,3.39e-06)
v1: Removing PWL point (0.00123264,3.4e-06)
v1: Removing PWL point (0.00123616,3.41e-06)
v1: Removing PWL point (0.00124,3.42e-06)
v1: Removing PWL point (0.00124352,3.43e-06)
v1: Removing PWL point (0.00124704,3.44e-06)
v1: Removing PWL point (0.0012512,3.45e-06)
v1: Removing PWL point (0.00125568,3.46e-06)
v1: Removing PWL point (0.00125984,3.47e-06)
v1: Removing PWL point (0.00126432,3.48e-06)
v1: Removing PWL point (0.00126912,3.49e-06)
v1: Removing PWL point (0.00127296,3.5e-06)
v1: Removing PWL point (0.0012768,3.51e-06)
v1: Removing PWL point (0.00128096,3.52e-06)
v1: Removing PWL point (0.00128544,3.53e-06)
v1: Removing PWL point (0.00129024,3.54e-06)
v1: Removing PWL point (0.00129408,3.55e-06)
v1: Removing PWL point (0.00129824,3.56e-06)
v1: Removing PWL point (0.0013024,3.57e-06)
v1: Removing PWL point (0.00130656,3.58e-06)
v1: Removing PWL point (0.0013104,3.59e-06)
v1: Removing PWL point (0.0013152,3.6e-06)
v1: Removing PWL point (0.00132,3.61e-06)
v1: Removing PWL point (0.00132384,3.62e-06)
v1: Removing PWL point (0.00132832,3.63e-06)
v1: Removing PWL point (0.00133216,3.64e-06)
v1: Removing PWL point (0.00133728,3.65e-06)
v1: Removing PWL point (0.00134144,3.66e-06)
v1: Removing PWL point (0.0013456,3.67e-06)
v1: Removing PWL point (0.00134944,3.68e-06)
v1: Removing PWL point (0.00135264,3.69e-06)
v1: Removing PWL point (0.00135552,3.7e-06)
v1: Removing PWL point (0.00135872,3.71e-06)
v1: Removing PWL point (0.00136288,3.72e-06)
v1: Removing PWL point (0.00136672,3.73e-06)
v1: Removing PWL point (0.0013712,3.74e-06)
v1: Removing PWL point (0.001376,3.75e-06)
v1: Removing PWL point (0.00138048,3.76e-06)
v1: Removing PWL point (0.00138464,3.77e-06)
v1: Removing PWL point (0.00139104,3.78e-06)
v1: Removing PWL point (0.0013952,3.79e-06)
v1: Removing PWL point (0.00139968,3.8e-06)
v1: Removing PWL point (0.00140448,3.81e-06)
v1: Removing PWL point (0.00140864,3.82e-06)
v1: Removing PWL point (0.00141216,3.83e-06)
v1: Removing PWL point (0.00141664,3.84e-06)
v1: Removing PWL point (0.00142144,3.85e-06)
v1: Removing PWL point (0.00142528,3.86e-06)
v1: Removing PWL point (0.0014288,3.87e-06)
v1: Removing PWL point (0.00143392,3.88e-06)
v1: Removing PWL point (0.00143808,3.89e-06)
v1: Removing PWL point (0.00144192,3.9e-06)
v1: Removing PWL point (0.00144576,3.91e-06)
v1: Removing PWL point (0.0014496,3.92e-06)
v1: Removing PWL point (0.00145312,3.93e-06)
v1: Removing PWL point (0.00145696,3.94e-06)
v1: Removing PWL point (0.0014608,3.95e-06)
v1: Removing PWL point (0.00146528,3.96e-06)
v1: Removing PWL point (0.00146976,3.97e-06)
v1: Removing PWL point (0.00147328,3.98e-06)
v1: Removing PWL point (0.00147744,3.99e-06)
v1: Removing PWL point (0.00148224,4e-06)
v1: Removing PWL point (0.0014864,4.01e-06)
v1: Removing PWL point (0.00149024,4.02e-06)
v1: Removing PWL point (0.00149344,4.03e-06)
v1: Removing PWL point (0.00149728,4.04e-06)
v1: Removing PWL point (0.0015008,4.05e-06)
v1: Removing PWL point (0.00150496,4.06e-06)
v1: Removing PWL point (0.00150912,4.07e-06)
v1: Removing PWL point (0.00151456,4.08e-06)
v1: Removing PWL point (0.0015184,4.09e-06)
v1: Removing PWL point (0.0015248,4.1e-06)
v1: Removing PWL point (0.00152832,4.11e-06)
v1: Removing PWL point (0.00153248,4.12e-06)
v1: Removing PWL point (0.00153664,4.13e-06)
v1: Removing PWL point (0.00154112,4.14e-06)
v1: Removing PWL point (0.0015456,4.15e-06)
v1: Removing PWL point (0.00154976,4.16e-06)
v1: Removing PWL point (0.00155392,4.17e-06)
v1: Removing PWL point (0.00155776,4.18e-06)
v1: Removing PWL point (0.00156128,4.19e-06)
v1: Removing PWL point (0.00156512,4.2e-06)
v1: Removing PWL point (0.00156896,4.21e-06)
v1: Removing PWL point (0.00157472,4.22e-06)
v1: Removing PWL point (0.00157856,4.23e-06)
v1: Removing PWL point (0.00158176,4.24e-06)
v1: Removing PWL point (0.00158624,4.25e-06)
v1: Removing PWL point (0.0015904,4.26e-06)
v1: Removing PWL point (0.00159424,4.27e-06)
v1: Removing PWL point (0.00159744,4.28e-06)
v1: Removing PWL point (0.0016,4.29e-06)
v1: Removing PWL point (0.00160352,4.3e-06)
v1: Removing PWL point (0.00160928,4.31e-06)
v1: Removing PWL point (0.0016128,4.32e-06)
v1: Removing PWL point (0.00161632,4.33e-06)
v1: Removing PWL point (0.00162016,4.34e-06)
v1: Removing PWL point (0.00162464,4.35e-06)
v1: Removing PWL point (0.00162848,4.36e-06)
v1: Removing PWL point (0.00163264,4.37e-06)
v1: Removing PWL point (0.00163648,4.38e-06)
v1: Removing PWL point (0.00164096,4.39e-06)
v1: Removing PWL point (0.00164544,4.4e-06)
v1: Removing PWL point (0.00164928,4.41e-06)
v1: Removing PWL point (0.00165376,4.42e-06)
v1: Removing PWL point (0.00165824,4.43e-06)
v1: Removing PWL point (0.0016624,4.44e-06)
v1: Removing PWL point (0.0016672,4.45e-06)
v1: Removing PWL point (0.00167072,4.46e-06)
v1: Removing PWL point (0.00167424,4.47e-06)
v1: Removing PWL point (0.00167744,4.48e-06)
v1: Removing PWL point (0.00168128,4.49e-06)
v1: Removing PWL point (0.00168512,4.5e-06)
v1: Removing PWL point (0.00168864,4.51e-06)
v1: Removing PWL point (0.00169248,4.52e-06)
v1: Removing PWL point (0.001696,4.53e-06)
v1: Removing PWL point (0.0017008,4.54e-06)
v1: Removing PWL point (0.00170464,4.55e-06)
v1: Removing PWL point (0.00171136,4.56e-06)
v1: Removing PWL point (0.00171456,4.57e-06)
v1: Removing PWL point (0.00171776,4.58e-06)
v1: Removing PWL point (0.00172224,4.59e-06)
v1: Removing PWL point (0.00172672,4.6e-06)
v1: Removing PWL point (0.00173152,4.61e-06)
v1: Removing PWL point (0.00173728,4.62e-06)
v1: Removing PWL point (0.00174208,4.63e-06)
v1: Removing PWL point (0.00174688,4.64e-06)
v1: Removing PWL point (0.00175136,4.65e-06)
v1: Removing PWL point (0.00175488,4.66e-06)
v1: Removing PWL point (0.00175968,4.67e-06)
v1: Removing PWL point (0.00176384,4.68e-06)
v1: Removing PWL point (0.001768,4.69e-06)
v1: Removing PWL point (0.00177184,4.7e-06)
v1: Removing PWL point (0.00177664,4.71e-06)
v1: Removing PWL point (0.00178112,4.72e-06)
v1: Removing PWL point (0.00178688,4.73e-06)
v1: Removing PWL point (0.001792,4.74e-06)
v1: Removing PWL point (0.00179648,4.75e-06)
v1: Removing PWL point (0.00180128,4.76e-06)
v1: Removing PWL point (0.0018048,4.77e-06)
v1: Removing PWL point (0.00180896,4.78e-06)
v1: Removing PWL point (0.00181408,4.79e-06)
v1: Removing PWL point (0.00181856,4.8e-06)
v1: Removing PWL point (0.00182272,4.81e-06)
v1: Removing PWL point (0.00182688,4.82e-06)
v1: Removing PWL point (0.00183072,4.83e-06)
v1: Removing PWL point (0.00183488,4.84e-06)
v1: Removing PWL point (0.00183936,4.85e-06)
v1: Removing PWL point (0.00184352,4.86e-06)
v1: Removing PWL point (0.001848,4.87e-06)
v1: Removing PWL point (0.00185344,4.88e-06)
v1: Removing PWL point (0.00185696,4.89e-06)
v1: Removing PWL point (0.00186304,4.9e-06)
v1: Removing PWL point (0.00186784,4.91e-06)
v1: Removing PWL point (0.00187168,4.92e-06)
v1: Removing PWL point (0.00187584,4.93e-06)
v1: Removing PWL point (0.00187936,4.94e-06)
v1: Removing PWL point (0.00188544,4.95e-06)
v1: Removing PWL point (0.00189088,4.96e-06)
v1: Removing PWL point (0.00189536,4.97e-06)
v1: Removing PWL point (0.00189952,4.98e-06)
v1: Removing PWL point (0.00190368,4.99e-06)
v1: Removing PWL point (0.00190912,5e-06)
v1: Removing PWL point (0.00191264,5.01e-06)
v1: Removing PWL point (0.0019184,5.02e-06)
v1: Removing PWL point (0.00192352,5.03e-06)
v1: Removing PWL point (0.00192768,5.04e-06)
v1: Removing PWL point (0.00193184,5.05e-06)
v1: Removing PWL point (0.00193696,5.06e-06)
v1: Removing PWL point (0.00194176,5.07e-06)
v1: Removing PWL point (0.00194688,5.08e-06)
v1: Removing PWL point (0.00195168,5.09e-06)
v1: Removing PWL point (0.00195936,5.1e-06)
v1: Removing PWL point (0.00196288,5.11e-06)
v1: Removing PWL point (0.00196704,5.12e-06)
v1: Removing PWL point (0.00197088,5.13e-06)
v1: Removing PWL point (0.001976,5.14e-06)
v1: Removing PWL point (0.0019808,5.15e-06)
v1: Removing PWL point (0.00198528,5.16e-06)
v1: Removing PWL point (0.00198944,5.17e-06)
v1: Removing PWL point (0.0019936,5.18e-06)
v1: Removing PWL point (0.00199808,5.19e-06)
v1: Removing PWL point (0.00200384,5.2e-06)
v1: Removing PWL point (0.00200768,5.21e-06)
v1: Removing PWL point (0.00201056,5.22e-06)
v1: Removing PWL point (0.00201664,5.23e-06)
v1: Removing PWL point (0.00202176,5.24e-06)
v1: Removing PWL point (0.00202496,5.25e-06)
v1: Removing PWL point (0.00202848,5.26e-06)
v1: Removing PWL point (0.0020336,5.27e-06)
v1: Removing PWL point (0.00203872,5.28e-06)
v1: Removing PWL point (0.0020448,5.29e-06)
v1: Removing PWL point (0.0020496,5.3e-06)
v1: Removing PWL point (0.00205728,5.31e-06)
v1: Removing PWL point (0.0020624,5.32e-06)
v1: Removing PWL point (0.0020672,5.33e-06)
v1: Removing PWL point (0.002072,5.34e-06)
v1: Removing PWL point (0.00207584,5.35e-06)
v1: Removing PWL point (0.00208064,5.36e-06)
v1: Removing PWL point (0.00208576,5.37e-06)
v1: Removing PWL point (0.0020912,5.38e-06)
v1: Removing PWL point (0.00209536,5.39e-06)
v1: Removing PWL point (0.00210112,5.4e-06)
v1: Removing PWL point (0.00210688,5.41e-06)
v1: Removing PWL point (0.00211136,5.42e-06)
v1: Removing PWL point (0.00211552,5.43e-06)
v1: Removing PWL point (0.00212032,5.44e-06)
v1: Removing PWL point (0.00212576,5.45e-06)
v1: Removing PWL point (0.00213216,5.46e-06)
v1: Removing PWL point (0.00213696,5.47e-06)
v1: Removing PWL point (0.00214144,5.48e-06)
v1: Removing PWL point (0.0021456,5.49e-06)
v1: Removing PWL point (0.0021504,5.5e-06)
v1: Removing PWL point (0.00215392,5.51e-06)
v1: Removing PWL point (0.00215872,5.52e-06)
v1: Removing PWL point (0.00216256,5.53e-06)
v1: Removing PWL point (0.00216672,5.54e-06)
v1: Removing PWL point (0.00217344,5.55e-06)
v1: Removing PWL point (0.00217856,5.56e-06)
v1: Removing PWL point (0.00218336,5.57e-06)
v1: Removing PWL point (0.0021888,5.58e-06)
v1: Removing PWL point (0.00219328,5.59e-06)
v1: Removing PWL point (0.00219744,5.6e-06)
v1: Removing PWL point (0.00220224,5.61e-06)
v1: Removing PWL point (0.00220704,5.62e-06)
v1: Removing PWL point (0.00221184,5.63e-06)
v1: Removing PWL point (0.00221792,5.64e-06)
v1: Removing PWL point (0.00222336,5.65e-06)
v1: Removing PWL point (0.00222944,5.66e-06)
v1: Removing PWL point (0.00223328,5.67e-06)
v1: Removing PWL point (0.0022368,5.68e-06)
v1: Removing PWL point (0.0022416,5.69e-06)
v1: Removing PWL point (0.00224736,5.7e-06)
v1: Removing PWL point (0.00225344,5.71e-06)
v1: Removing PWL point (0.00225888,5.72e-06)
v1: Removing PWL point (0.00226304,5.73e-06)
v1: Removing PWL point (0.00226944,5.74e-06)
v1: Removing PWL point (0.0022752,5.75e-06)
v1: Removing PWL point (0.00228096,5.76e-06)
v1: Removing PWL point (0.0022864,5.77e-06)
v1: Removing PWL point (0.00229248,5.78e-06)
v1: Removing PWL point (0.0022976,5.79e-06)
v1: Removing PWL point (0.00230336,5.8e-06)
v1: Removing PWL point (0.00230784,5.81e-06)
v1: Removing PWL point (0.00231264,5.82e-06)
v1: Removing PWL point (0.00231744,5.83e-06)
v1: Removing PWL point (0.00232224,5.84e-06)
v1: Removing PWL point (0.00232768,5.85e-06)
v1: Removing PWL point (0.00233184,5.86e-06)
v1: Removing PWL point (0.00233504,5.87e-06)
v1: Removing PWL point (0.00233952,5.88e-06)
v1: Removing PWL point (0.00234464,5.89e-06)
v1: Removing PWL point (0.00234912,5.9e-06)
v1: Removing PWL point (0.00235424,5.91e-06)
v1: Removing PWL point (0.00235904,5.92e-06)
v1: Removing PWL point (0.00236384,5.93e-06)
v1: Removing PWL point (0.00236896,5.94e-06)
v1: Removing PWL point (0.00237344,5.95e-06)
v1: Removing PWL point (0.00237696,5.96e-06)
v1: Removing PWL point (0.00238144,5.97e-06)
v1: Removing PWL point (0.00238688,5.98e-06)
v1: Removing PWL point (0.00239104,5.99e-06)
v1: Removing PWL point (0.00239552,6e-06)
v1: Removing PWL point (0.00240096,6.01e-06)
v1: Removing PWL point (0.00240448,6.02e-06)
v1: Removing PWL point (0.00240832,6.03e-06)
v1: Removing PWL point (0.00241248,6.04e-06)
v1: Removing PWL point (0.0024176,6.05e-06)
v1: Removing PWL point (0.00242336,6.06e-06)
v1: Removing PWL point (0.0024288,6.07e-06)
v1: Removing PWL point (0.0024336,6.08e-06)
v1: Removing PWL point (0.00243904,6.09e-06)
v1: Removing PWL point (0.00244288,6.1e-06)
v1: Removing PWL point (0.00244832,6.11e-06)
v1: Removing PWL point (0.00245344,6.12e-06)
v1: Removing PWL point (0.00245728,6.13e-06)
v1: Removing PWL point (0.00246176,6.14e-06)
v1: Removing PWL point (0.00246624,6.15e-06)
v1: Removing PWL point (0.00247008,6.16e-06)
v1: Removing PWL point (0.00247392,6.17e-06)
v1: Removing PWL point (0.0024784,6.18e-06)
v1: Removing PWL point (0.00248288,6.19e-06)
v1: Removing PWL point (0.00248736,6.2e-06)
v1: Removing PWL point (0.0024928,6.21e-06)
v1: Removing PWL point (0.00249728,6.22e-06)
v1: Removing PWL point (0.00250176,6.23e-06)
v1: Removing PWL point (0.00250624,6.24e-06)
v1: Removing PWL point (0.00251104,6.25e-06)
v1: Removing PWL point (0.00251648,6.26e-06)
v1: Removing PWL point (0.00252128,6.27e-06)
v1: Removing PWL point (0.00252512,6.28e-06)
v1: Removing PWL point (0.00253056,6.29e-06)
v1: Removing PWL point (0.00253504,6.3e-06)
v1: Removing PWL point (0.00253984,6.31e-06)
v1: Removing PWL point (0.00254528,6.32e-06)
v1: Removing PWL point (0.00255008,6.33e-06)
v1: Removing PWL point (0.00255488,6.34e-06)
v1: Removing PWL point (0.00256032,6.35e-06)
v1: Removing PWL point (0.00256544,6.36e-06)
v1: Removing PWL point (0.00257184,6.37e-06)
v1: Removing PWL point (0.0025776,6.38e-06)
v1: Removing PWL point (0.00258208,6.39e-06)
v1: Removing PWL point (0.00258656,6.4e-06)
v1: Removing PWL point (0.00259136,6.41e-06)
v1: Removing PWL point (0.00259648,6.42e-06)
v1: Removing PWL point (0.00260224,6.43e-06)
v1: Removing PWL point (0.00260704,6.44e-06)
v1: Removing PWL point (0.00261088,6.45e-06)
v1: Removing PWL point (0.00261504,6.46e-06)
v1: Removing PWL point (0.00261952,6.47e-06)
v1: Removing PWL point (0.00262368,6.48e-06)
v1: Removing PWL point (0.0026288,6.49e-06)
v1: Removing PWL point (0.00263264,6.5e-06)
v1: Removing PWL point (0.00263584,6.51e-06)
v1: Removing PWL point (0.0026384,6.52e-06)
v1: Removing PWL point (0.00264064,6.53e-06)
v1: Removing PWL point (0.00264288,6.54e-06)
v1: Removing PWL point (0.00264512,6.55e-06)
v1: Removing PWL point (0.00264704,6.56e-06)
v1: Removing PWL point (0.00264896,6.57e-06)
v1: Removing PWL point (0.00265088,6.58e-06)
v1: Removing PWL point (0.0026528,6.59e-06)
v1: Removing PWL point (0.0026544,6.6e-06)
v1: Removing PWL point (0.00265632,6.61e-06)
v1: Removing PWL point (0.00265792,6.62e-06)
v1: Removing PWL point (0.00265984,6.63e-06)
v1: Removing PWL point (0.00266208,6.64e-06)
v1: Removing PWL point (0.00266464,6.65e-06)
v1: Removing PWL point (0.00266752,6.66e-06)
v1: Removing PWL point (0.00267008,6.67e-06)
v1: Removing PWL point (0.0026736,6.68e-06)
v1: Removing PWL point (0.0026768,6.69e-06)
v1: Removing PWL point (0.00268064,6.7e-06)
v1: Removing PWL point (0.00268608,6.71e-06)
v1: Removing PWL point (0.00269408,6.72e-06)
v1: Removing PWL point (0.00271232,6.73e-06)
v1: Removing PWL point (0.00272608,6.74e-06)
v1: Removing PWL point (0.002744,6.75e-06)
v1: Removing PWL point (0.00277184,6.74e-06)
v1: Removing PWL point (0.00280864,6.73e-06)
v1: Removing PWL point (0.00283104,6.72e-06)
v1: Removing PWL point (0.00283744,6.73e-06)
v1: Removing PWL point (0.00284224,6.72e-06)
v1: Removing PWL point (0.00285632,6.71e-06)
v1: Removing PWL point (0.00291072,6.72e-06)
v1: Removing PWL point (0.00292672,6.71e-06)
v1: Removing PWL point (0.0029328,6.7e-06)
v1: Removing PWL point (0.00295104,6.69e-06)
v1: Removing PWL point (0.00298208,6.7e-06)
v1: Removing PWL point (0.0029856,6.71e-06)
v1: Removing PWL point (0.0029888,6.72e-06)
v1: Removing PWL point (0.00299232,6.73e-06)
v1: Removing PWL point (0.00299552,6.74e-06)
v1: Removing PWL point (0.0029984,6.75e-06)
v1: Removing PWL point (0.00300096,6.76e-06)
v1: Removing PWL point (0.00300352,6.77e-06)
v1: Removing PWL point (0.0030064,6.78e-06)
v1: Removing PWL point (0.0030144,6.79e-06)
v1: Removing PWL point (0.00302528,6.78e-06)
v1: Removing PWL point (0.00303136,6.77e-06)
v1: Removing PWL point (0.00303552,6.76e-06)
v1: Removing PWL point (0.0030384,6.75e-06)
v1: Removing PWL point (0.00304096,6.74e-06)
v1: Removing PWL point (0.0030432,6.73e-06)
v1: Removing PWL point (0.00304576,6.72e-06)
v1: Removing PWL point (0.003048,6.71e-06)
v1: Removing PWL point (0.00304992,6.7e-06)
v1: Removing PWL point (0.00305184,6.69e-06)
v1: Removing PWL point (0.00305376,6.68e-06)
v1: Removing PWL point (0.00305568,6.67e-06)
v1: Removing PWL point (0.00305728,6.66e-06)
v1: Removing PWL point (0.0030592,6.65e-06)
v1: Removing PWL point (0.0030608,6.64e-06)
v1: Removing PWL point (0.0030624,6.63e-06)
v1: Removing PWL point (0.003064,6.62e-06)
v1: Removing PWL point (0.0030656,6.61e-06)
v1: Removing PWL point (0.00306752,6.6e-06)
v1: Removing PWL point (0.00306944,6.59e-06)
v1: Removing PWL point (0.00307104,6.58e-06)
v1: Removing PWL point (0.00307264,6.57e-06)
v1: Removing PWL point (0.00307424,6.56e-06)
v1: Removing PWL point (0.00307584,6.55e-06)
v1: Removing PWL point (0.00307744,6.54e-06)
v1: Removing PWL point (0.00307872,6.53e-06)
v1: Removing PWL point (0.00308,6.52e-06)
v1: Removing PWL point (0.00308128,6.51e-06)
v1: Removing PWL point (0.00308256,6.5e-06)
v1: Removing PWL point (0.00308384,6.49e-06)
v1: Removing PWL point (0.00308512,6.48e-06)
v1: Removing PWL point (0.0030864,6.47e-06)
v1: Removing PWL point (0.00308768,6.46e-06)
v1: Removing PWL point (0.00308896,6.45e-06)
v1: Removing PWL point (0.00309024,6.44e-06)
v1: Removing PWL point (0.00309152,6.43e-06)
v1: Removing PWL point (0.00309248,6.42e-06)
v1: Removing PWL point (0.00309376,6.41e-06)
v1: Removing PWL point (0.00309472,6.4e-06)
v1: Removing PWL point (0.003096,6.39e-06)
v1: Removing PWL point (0.00309696,6.38e-06)
v1: Removing PWL point (0.00309792,6.37e-06)
v1: Removing PWL point (0.0030992,6.36e-06)
v1: Removing PWL point (0.00310016,6.35e-06)
v1: Removing PWL point (0.00310144,6.34e-06)
v1: Removing PWL point (0.0031024,6.33e-06)
v1: Removing PWL point (0.00310336,6.32e-06)
v1: Removing PWL point (0.00310464,6.31e-06)
v1: Removing PWL point (0.0031056,6.3e-06)
v1: Removing PWL point (0.00310688,6.29e-06)
v1: Removing PWL point (0.00310784,6.28e-06)
v1: Removing PWL point (0.0031088,6.27e-06)
v1: Removing PWL point (0.00311008,6.26e-06)
v1: Removing PWL point (0.00311104,6.25e-06)
v1: Removing PWL point (0.00311232,6.24e-06)
v1: Removing PWL point (0.00311328,6.23e-06)
v1: Removing PWL point (0.00311456,6.22e-06)
v1: Removing PWL point (0.00311552,6.21e-06)
v1: Removing PWL point (0.00311648,6.2e-06)
v1: Removing PWL point (0.00311776,6.19e-06)
v1: Removing PWL point (0.00311872,6.18e-06)
v1: Removing PWL point (0.00311968,6.17e-06)
v1: Removing PWL point (0.00312064,6.16e-06)
v1: Removing PWL point (0.00312192,6.15e-06)
v1: Removing PWL point (0.00312288,6.14e-06)
v1: Removing PWL point (0.00312384,6.13e-06)
v1: Removing PWL point (0.0031248,6.12e-06)
v1: Removing PWL point (0.00312608,6.11e-06)
v1: Removing PWL point (0.00312704,6.1e-06)
v1: Removing PWL point (0.003128,6.09e-06)
v1: Removing PWL point (0.00312896,6.08e-06)
v1: Removing PWL point (0.00312992,6.07e-06)
v1: Removing PWL point (0.00313088,6.06e-06)
v1: Removing PWL point (0.00313184,6.05e-06)
v1: Removing PWL point (0.0031328,6.04e-06)
v1: Removing PWL point (0.00313408,6.03e-06)
v1: Removing PWL point (0.00313504,6.02e-06)
v1: Removing PWL point (0.003136,6.01e-06)
v1: Removing PWL point (0.00313696,6e-06)
v1: Removing PWL point (0.00313792,5.99e-06)
v1: Removing PWL point (0.00313888,5.98e-06)
v1: Removing PWL point (0.00313984,5.97e-06)
v1: Removing PWL point (0.0031408,5.96e-06)
v1: Removing PWL point (0.00314176,5.95e-06)
v1: Removing PWL point (0.00314272,5.94e-06)
v1: Removing PWL point (0.00314368,5.93e-06)
v1: Removing PWL point (0.00314464,5.92e-06)
v1: Removing PWL point (0.0031456,5.91e-06)
v1: Removing PWL point (0.00314656,5.9e-06)
v1: Removing PWL point (0.00314752,5.89e-06)
v1: Removing PWL point (0.00314912,5.87e-06)
v1: Removing PWL point (0.00315008,5.86e-06)
v1: Removing PWL point (0.00315104,5.85e-06)
v1: Removing PWL point (0.003152,5.84e-06)
v1: Removing PWL point (0.00315296,5.83e-06)
v1: Removing PWL point (0.00315392,5.82e-06)
v1: Removing PWL point (0.00315552,5.8e-06)
v1: Removing PWL point (0.00315648,5.79e-06)
v1: Removing PWL point (0.00315744,5.78e-06)
v1: Removing PWL point (0.00315904,5.76e-06)
v1: Removing PWL point (0.00316,5.75e-06)
v1: Removing PWL point (0.00316096,5.74e-06)
v1: Removing PWL point (0.00316256,5.72e-06)
v1: Removing PWL point (0.00316352,5.71e-06)
v1: Removing PWL point (0.00316448,5.7e-06)
v1: Removing PWL point (0.00316608,5.68e-06)
v1: Removing PWL point (0.00316768,5.66e-06)
v1: Removing PWL point (0.00316928,5.64e-06)
v1: Removing PWL point (0.00317024,5.63e-06)
v1: Removing PWL point (0.00317184,5.61e-06)
v1: Removing PWL point (0.00317344,5.59e-06)
v1: Removing PWL point (0.0031744,5.58e-06)
v1: Removing PWL point (0.003176,5.56e-06)
v1: Removing PWL point (0.00317696,5.55e-06)
v1: Removing PWL point (0.00317856,5.53e-06)
v1: Removing PWL point (0.00317952,5.52e-06)
v1: Removing PWL point (0.00318112,5.5e-06)
v1: Removing PWL point (0.00318208,5.49e-06)
v1: Removing PWL point (0.00318368,5.47e-06)
v1: Removing PWL point (0.00318528,5.45e-06)
v1: Removing PWL point (0.00318624,5.44e-06)
v1: Removing PWL point (0.00318784,5.42e-06)
v1: Removing PWL point (0.0031888,5.41e-06)
v1: Removing PWL point (0.0031904,5.39e-06)
v1: Removing PWL point (0.003192,5.37e-06)
v1: Removing PWL point (0.00319296,5.36e-06)
v1: Removing PWL point (0.00319456,5.34e-06)
v1: Removing PWL point (0.00319552,5.33e-06)
v1: Removing PWL point (0.00319712,5.31e-06)
v1: Removing PWL point (0.00319872,5.29e-06)
v1: Removing PWL point (0.00320096,5.26e-06)
v1: Removing PWL point (0.00320256,5.24e-06)
v1: Removing PWL point (0.00320416,5.22e-06)
v1: Removing PWL point (0.00320512,5.21e-06)
v1: Removing PWL point (0.00320672,5.19e-06)
v1: Removing PWL point (0.00320832,5.17e-06)
v1: Removing PWL point (0.00320992,5.15e-06)
v1: Removing PWL point (0.00321152,5.13e-06)
v1: Removing PWL point (0.00321376,5.1e-06)
v1: Removing PWL point (0.00321536,5.08e-06)
v1: Removing PWL point (0.00321696,5.06e-06)
v1: Removing PWL point (0.0032192,5.03e-06)
v1: Removing PWL point (0.0032208,5.01e-06)
v1: Removing PWL point (0.0032224,4.99e-06)
v1: Removing PWL point (0.003224,4.97e-06)
v1: Removing PWL point (0.0032256,4.95e-06)
v1: Removing PWL point (0.0032272,4.93e-06)
v1: Removing PWL point (0.0032288,4.91e-06)
v1: Removing PWL point (0.0032304,4.89e-06)
v1: Removing PWL point (0.003232,4.87e-06)
v1: Removing PWL point (0.0032336,4.85e-06)
v1: Removing PWL point (0.00323584,4.82e-06)
v1: Removing PWL point (0.00323744,4.8e-06)
v1: Removing PWL point (0.00323904,4.78e-06)
v1: Removing PWL point (0.00324064,4.76e-06)
v1: Removing PWL point (0.00324288,4.73e-06)
v1: Removing PWL point (0.00324576,4.69e-06)
v1: Removing PWL point (0.003248,4.66e-06)
v1: Removing PWL point (0.0032496,4.64e-06)
v1: Removing PWL point (0.00325184,4.61e-06)
v1: Removing PWL point (0.00325344,4.59e-06)
v1: Removing PWL point (0.00325504,4.57e-06)
v1: Removing PWL point (0.00325664,4.55e-06)
v1: Removing PWL point (0.00325888,4.52e-06)
v1: Removing PWL point (0.00326112,4.49e-06)
v1: Removing PWL point (0.00326336,4.46e-06)
v1: Removing PWL point (0.00326496,4.44e-06)
v1: Removing PWL point (0.00326656,4.42e-06)
v1: Removing PWL point (0.00326944,4.38e-06)
v1: Removing PWL point (0.00327168,4.35e-06)
v1: Removing PWL point (0.00327584,4.29e-06)
v1: Removing PWL point (0.00327808,4.26e-06)
v1: Removing PWL point (0.00328032,4.23e-06)
v1: Removing PWL point (0.00328192,4.21e-06)
v1: Removing PWL point (0.0032848,4.17e-06)
v1: Removing PWL point (0.00328704,4.14e-06)
v1: Removing PWL point (0.00328928,4.11e-06)
v1: Removing PWL point (0.00329152,4.08e-06)
v1: Removing PWL point (0.00329312,4.06e-06)
v1: Removing PWL point (0.00329472,4.04e-06)
v1: Removing PWL point (0.00329696,4.01e-06)
v1: Removing PWL point (0.00329984,3.97e-06)
v1: Removing PWL point (0.00330272,3.93e-06)
v1: Removing PWL point (0.00330688,3.87e-06)
v1: Removing PWL point (0.00330976,3.83e-06)
v1: Removing PWL point (0.00331136,3.81e-06)
v1: Removing PWL point (0.0033136,3.78e-06)
v1: Removing PWL point (0.0033152,3.76e-06)
v1: Removing PWL point (0.00331744,3.73e-06)
v1: Removing PWL point (0.00331968,3.7e-06)
v1: Removing PWL point (0.0033232,3.65e-06)
v1: Removing PWL point (0.00332736,3.59e-06)
v1: Removing PWL point (0.00333024,3.55e-06)
v1: Removing PWL point (0.00333312,3.51e-06)
v1: Removing PWL point (0.00333536,3.48e-06)
v1: Removing PWL point (0.00333888,3.43e-06)
v1: Removing PWL point (0.00334304,3.37e-06)
v1: Removing PWL point (0.0033472,3.31e-06)
v1: Removing PWL point (0.00335008,3.27e-06)
v1: Removing PWL point (0.00335232,3.24e-06)
v1: Removing PWL point (0.0033552,3.2e-06)
v1: Removing PWL point (0.00335872,3.15e-06)
v1: Removing PWL point (0.0033616,3.11e-06)
v1: Removing PWL point (0.00336576,3.05e-06)
v1: Removing PWL point (0.00336928,3e-06)
v1: Removing PWL point (0.00337152,2.97e-06)
v1: Removing PWL point (0.00337504,2.92e-06)
v1: Removing PWL point (0.00337792,2.88e-06)
v1: Removing PWL point (0.00338208,2.82e-06)
v1: Removing PWL point (0.0033856,2.77e-06)
v1: Removing PWL point (0.00338912,2.72e-06)
v1: Removing PWL point (0.0033952,2.63e-06)
v1: Removing PWL point (0.00339872,2.58e-06)
v1: Removing PWL point (0.00340224,2.53e-06)
v1: Removing PWL point (0.00340704,2.46e-06)
v1: Removing PWL point (0.00340928,2.43e-06)
v1: Removing PWL point (0.00341344,2.37e-06)
v1: Removing PWL point (0.0034176,2.31e-06)
v1: Removing PWL point (0.00342176,2.25e-06)
v1: Removing PWL point (0.00342464,2.21e-06)
v1: Removing PWL point (0.0034288,2.15e-06)
v1: Removing PWL point (0.00343296,2.09e-06)
v1: Removing PWL point (0.00343584,2.05e-06)
v1: Removing PWL point (0.00344064,1.98e-06)
v1: Removing PWL point (0.0034448,1.92e-06)
v1: Removing PWL point (0.00344832,1.87e-06)
v1: Removing PWL point (0.00345056,1.84e-06)
v1: Removing PWL point (0.00345408,1.79e-06)
v1: Removing PWL point (0.00345696,1.75e-06)
v1: Removing PWL point (0.00346048,1.7e-06)
v1: Removing PWL point (0.00346336,1.66e-06)
v1: Removing PWL point (0.00346688,1.61e-06)
v1: Removing PWL point (0.00346976,1.57e-06)
v1: Removing PWL point (0.00347328,1.52e-06)
v1: Removing PWL point (0.00347936,1.43e-06)
v1: Removing PWL point (0.00348224,1.39e-06)
v1: Removing PWL point (0.0034864,1.33e-06)
v1: Removing PWL point (0.00348992,1.28e-06)
v1: Removing PWL point (0.00349344,1.23e-06)
v1: Removing PWL point (0.00349568,1.2e-06)
v1: Removing PWL point (0.0034992,1.15e-06)
v1: Removing PWL point (0.00350464,1.07e-06)
v1: Removing PWL point (0.00365024,-1.04e-06)
v1: Removing PWL point (0.00365376,-1.09e-06)
v1: Removing PWL point (0.0036624,-1.22e-06)
v1: Removing PWL point (0.0036704,-1.34e-06)
v1: Removing PWL point (0.00367392,-1.39e-06)
v1: Removing PWL point (0.00367808,-1.45e-06)
v1: Removing PWL point (0.00368224,-1.51e-06)
v1: Removing PWL point (0.00368704,-1.58e-06)
v1: Removing PWL point (0.0036912,-1.64e-06)
v1: Removing PWL point (0.00369536,-1.7e-06)
v1: Removing PWL point (0.00369952,-1.76e-06)
v1: Removing PWL point (0.00370368,-1.82e-06)
v1: Removing PWL point (0.00370848,-1.89e-06)
v1: Removing PWL point (0.00371328,-1.96e-06)
v1: Removing PWL point (0.00371808,-2.03e-06)
v1: Removing PWL point (0.00372224,-2.09e-06)
v1: Removing PWL point (0.00372576,-2.14e-06)
v1: Removing PWL point (0.00373248,-2.24e-06)
v1: Removing PWL point (0.00373856,-2.33e-06)
v1: Removing PWL point (0.00374144,-2.37e-06)
v1: Removing PWL point (0.00374432,-2.41e-06)
v1: Removing PWL point (0.0037472,-2.45e-06)
v1: Removing PWL point (0.00375072,-2.5e-06)
v1: Removing PWL point (0.00375488,-2.56e-06)
v1: Removing PWL point (0.00375904,-2.62e-06)
v1: Removing PWL point (0.00376192,-2.66e-06)
v1: Removing PWL point (0.00376544,-2.71e-06)
v1: Removing PWL point (0.00376832,-2.75e-06)
v1: Removing PWL point (0.0037712,-2.79e-06)
v1: Removing PWL point (0.0037792,-2.91e-06)
v1: Removing PWL point (0.00378336,-2.97e-06)
v1: Removing PWL point (0.00378816,-3.04e-06)
v1: Removing PWL point (0.00379296,-3.11e-06)
v1: Removing PWL point (0.00379584,-3.15e-06)
v1: Removing PWL point (0.00379872,-3.19e-06)
v1: Removing PWL point (0.00380416,-3.27e-06)
v1: Removing PWL point (0.0038096,-3.35e-06)
v1: Removing PWL point (0.00381568,-3.44e-06)
v1: Removing PWL point (0.00382048,-3.51e-06)
v1: Removing PWL point (0.00382464,-3.57e-06)
v1: Removing PWL point (0.00383072,-3.66e-06)
v1: Removing PWL point (0.00383424,-3.71e-06)
v1: Removing PWL point (0.00383712,-3.75e-06)
v1: Removing PWL point (0.00383936,-3.78e-06)
v1: Removing PWL point (0.00384288,-3.83e-06)
v1: Removing PWL point (0.00384832,-3.91e-06)
v1: Removing PWL point (0.00385248,-3.97e-06)
v1: Removing PWL point (0.0038592,-4.07e-06)
v1: Removing PWL point (0.00386464,-4.15e-06)
v1: Removing PWL point (0.00386944,-4.22e-06)
v1: Removing PWL point (0.00387552,-4.31e-06)
v1: Removing PWL point (0.0038784,-4.35e-06)
v1: Removing PWL point (0.00388192,-4.4e-06)
v1: Removing PWL point (0.00388928,-4.51e-06)
v1: Removing PWL point (0.00389344,-4.57e-06)
v1: Removing PWL point (0.00389696,-4.62e-06)
v1: Removing PWL point (0.0038992,-4.65e-06)
v1: Removing PWL point (0.00390208,-4.69e-06)
v1: Removing PWL point (0.0039056,-4.74e-06)
v1: Removing PWL point (0.00390976,-4.8e-06)
v1: Removing PWL point (0.00391584,-4.89e-06)
v1: Removing PWL point (0.00391936,-4.94e-06)
v1: Removing PWL point (0.00392224,-4.98e-06)
v1: Removing PWL point (0.00392448,-5.01e-06)
v1: Removing PWL point (0.00392672,-5.04e-06)
v1: Removing PWL point (0.00393024,-5.09e-06)
v1: Removing PWL point (0.00393504,-5.16e-06)
v1: Removing PWL point (0.00393856,-5.21e-06)
v1: Removing PWL point (0.003944,-5.29e-06)
v1: Removing PWL point (0.00394944,-5.37e-06)
v1: Removing PWL point (0.00395488,-5.45e-06)
v1: Removing PWL point (0.00395904,-5.51e-06)
v1: Removing PWL point (0.00396448,-5.59e-06)
v1: Removing PWL point (0.00396672,-5.62e-06)
v1: Removing PWL point (0.0039696,-5.66e-06)
v1: Removing PWL point (0.00397248,-5.7e-06)
v1: Removing PWL point (0.003976,-5.75e-06)
v1: Removing PWL point (0.00397888,-5.79e-06)
v1: Removing PWL point (0.0039824,-5.84e-06)
v1: Removing PWL point (0.00398592,-5.89e-06)
v1: Removing PWL point (0.0039888,-5.93e-06)
v1: Removing PWL point (0.00399168,-5.97e-06)
v1: Removing PWL point (0.00399392,-6e-06)
v1: Removing PWL point (0.00399808,-6.06e-06)
v1: Removing PWL point (0.0040016,-6.11e-06)
v1: Removing PWL point (0.0040064,-6.18e-06)
v1: Removing PWL point (0.00400992,-6.23e-06)
v1: Removing PWL point (0.00401344,-6.28e-06)
v1: Removing PWL point (0.00401696,-6.33e-06)
v1: Removing PWL point (0.00402048,-6.38e-06)
v1: Removing PWL point (0.00402336,-6.42e-06)
v1: Removing PWL point (0.00402752,-6.48e-06)
v1: Removing PWL point (0.00403104,-6.53e-06)
v1: Removing PWL point (0.00403584,-6.6e-06)
v1: Removing PWL point (0.00404064,-6.67e-06)
v1: Removing PWL point (0.00404352,-6.71e-06)
v1: Removing PWL point (0.00404576,-6.74e-06)
v1: Removing PWL point (0.00404864,-6.78e-06)
v1: Removing PWL point (0.00405216,-6.83e-06)
v1: Removing PWL point (0.00405632,-6.89e-06)
v1: Removing PWL point (0.00405984,-6.94e-06)
v1: Removing PWL point (0.00406272,-6.98e-06)
v1: Removing PWL point (0.00406624,-7.03e-06)
v1: Removing PWL point (0.0040704,-7.09e-06)
v1: Removing PWL point (0.00407328,-7.13e-06)
v1: Removing PWL point (0.0040768,-7.18e-06)
v1: Removing PWL point (0.0040816,-7.25e-06)
v1: Removing PWL point (0.00408576,-7.31e-06)
v1: Removing PWL point (0.00408928,-7.36e-06)
v1: Removing PWL point (0.0040928,-7.41e-06)
v1: Removing PWL point (0.00409568,-7.45e-06)
v1: Removing PWL point (0.00409984,-7.51e-06)
v1: Removing PWL point (0.00410464,-7.58e-06)
v1: Removing PWL point (0.0041088,-7.64e-06)
v1: Removing PWL point (0.00411232,-7.69e-06)
v1: Removing PWL point (0.00411584,-7.74e-06)
v1: Removing PWL point (0.00411872,-7.78e-06)
v1: Removing PWL point (0.00412096,-7.81e-06)
v1: Removing PWL point (0.00412384,-7.85e-06)
v1: Removing PWL point (0.00412608,-7.88e-06)
v1: Removing PWL point (0.00412896,-7.92e-06)
v1: Removing PWL point (0.0041312,-7.95e-06)
v1: Removing PWL point (0.00413344,-7.98e-06)
v1: Removing PWL point (0.00413568,-8.01e-06)
v1: Removing PWL point (0.00413792,-8.04e-06)
v1: Removing PWL point (0.00413952,-8.06e-06)
v1: Removing PWL point (0.0041424,-8.1e-06)
v1: Removing PWL point (0.00414464,-8.13e-06)
v1: Removing PWL point (0.00414688,-8.16e-06)
v1: Removing PWL point (0.00414976,-8.2e-06)
v1: Removing PWL point (0.00415264,-8.24e-06)
v1: Removing PWL point (0.00415552,-8.28e-06)
v1: Removing PWL point (0.00415776,-8.31e-06)
v1: Removing PWL point (0.00415936,-8.33e-06)
v1: Removing PWL point (0.0041616,-8.36e-06)
v1: Removing PWL point (0.0041632,-8.38e-06)
v1: Removing PWL point (0.00416544,-8.41e-06)
v1: Removing PWL point (0.00416704,-8.43e-06)
v1: Removing PWL point (0.00416928,-8.46e-06)
v1: Removing PWL point (0.00417152,-8.49e-06)
v1: Removing PWL point (0.00417312,-8.51e-06)
v1: Removing PWL point (0.00417472,-8.53e-06)
v1: Removing PWL point (0.00417632,-8.55e-06)
v1: Removing PWL point (0.00417792,-8.57e-06)
v1: Removing PWL point (0.00418016,-8.6e-06)
v1: Removing PWL point (0.0041824,-8.63e-06)
v1: Removing PWL point (0.00418464,-8.66e-06)
v1: Removing PWL point (0.00418624,-8.68e-06)
v1: Removing PWL point (0.00418848,-8.71e-06)
v1: Removing PWL point (0.00419008,-8.73e-06)
v1: Removing PWL point (0.00419168,-8.75e-06)
v1: Removing PWL point (0.00419328,-8.77e-06)
v1: Removing PWL point (0.00419488,-8.79e-06)
v1: Removing PWL point (0.00419648,-8.81e-06)
v1: Removing PWL point (0.00419808,-8.83e-06)
v1: Removing PWL point (0.00419968,-8.85e-06)
v1: Removing PWL point (0.00420128,-8.87e-06)
v1: Removing PWL point (0.00420288,-8.89e-06)
v1: Removing PWL point (0.00420448,-8.91e-06)
v1: Removing PWL point (0.00420608,-8.93e-06)
v1: Removing PWL point (0.00420832,-8.96e-06)
v1: Removing PWL point (0.00420992,-8.98e-06)
v1: Removing PWL point (0.00421152,-9e-06)
v1: Removing PWL point (0.00421248,-9.01e-06)
v1: Removing PWL point (0.00421408,-9.03e-06)
v1: Removing PWL point (0.00421568,-9.05e-06)
v1: Removing PWL point (0.00421728,-9.07e-06)
v1: Removing PWL point (0.00421824,-9.08e-06)
v1: Removing PWL point (0.00421984,-9.1e-06)
v1: Removing PWL point (0.0042208,-9.11e-06)
v1: Removing PWL point (0.00422176,-9.12e-06)
v1: Removing PWL point (0.00422336,-9.14e-06)
v1: Removing PWL point (0.00422432,-9.15e-06)
v1: Removing PWL point (0.00422528,-9.16e-06)
v1: Removing PWL point (0.00422624,-9.17e-06)
v1: Removing PWL point (0.0042272,-9.18e-06)
v1: Removing PWL point (0.00422816,-9.19e-06)
v1: Removing PWL point (0.00422976,-9.21e-06)
v1: Removing PWL point (0.00423072,-9.22e-06)
v1: Removing PWL point (0.00423232,-9.24e-06)
v1: Removing PWL point (0.00423328,-9.25e-06)
v1: Removing PWL point (0.00423424,-9.26e-06)
v1: Removing PWL point (0.0042352,-9.27e-06)
v1: Removing PWL point (0.0042368,-9.29e-06)
v1: Removing PWL point (0.00423776,-9.3e-06)
v1: Removing PWL point (0.00423872,-9.31e-06)
v1: Removing PWL point (0.00423968,-9.32e-06)
v1: Removing PWL point (0.00424064,-9.33e-06)
v1: Removing PWL point (0.0042416,-9.34e-06)
v1: Removing PWL point (0.00424256,-9.35e-06)
v1: Removing PWL point (0.00424352,-9.36e-06)
v1: Removing PWL point (0.00424448,-9.37e-06)
v1: Removing PWL point (0.00424544,-9.38e-06)
v1: Removing PWL point (0.0042464,-9.39e-06)
v1: Removing PWL point (0.00424736,-9.4e-06)
v1: Removing PWL point (0.00424864,-9.41e-06)
v1: Removing PWL point (0.0042496,-9.42e-06)
v1: Removing PWL point (0.00425056,-9.43e-06)
v1: Removing PWL point (0.00425152,-9.44e-06)
v1: Removing PWL point (0.00425248,-9.45e-06)
v1: Removing PWL point (0.00425376,-9.46e-06)
v1: Removing PWL point (0.00425472,-9.47e-06)
v1: Removing PWL point (0.00425568,-9.48e-06)
v1: Removing PWL point (0.00425696,-9.49e-06)
v1: Removing PWL point (0.00425792,-9.5e-06)
v1: Removing PWL point (0.0042592,-9.51e-06)
v1: Removing PWL point (0.00426016,-9.52e-06)
v1: Removing PWL point (0.00426144,-9.53e-06)
v1: Removing PWL point (0.00426272,-9.54e-06)
v1: Removing PWL point (0.004264,-9.55e-06)
v1: Removing PWL point (0.00426496,-9.56e-06)
v1: Removing PWL point (0.00426624,-9.57e-06)
v1: Removing PWL point (0.00426752,-9.58e-06)
v1: Removing PWL point (0.00426848,-9.59e-06)
v1: Removing PWL point (0.00426976,-9.6e-06)
v1: Removing PWL point (0.00427072,-9.61e-06)
v1: Removing PWL point (0.00427168,-9.62e-06)
v1: Removing PWL point (0.00427296,-9.63e-06)
v1: Removing PWL point (0.00427392,-9.64e-06)
v1: Removing PWL point (0.0042752,-9.65e-06)
v1: Removing PWL point (0.00427616,-9.66e-06)
v1: Removing PWL point (0.00427744,-9.67e-06)
v1: Removing PWL point (0.00427872,-9.68e-06)
v1: Removing PWL point (0.00428032,-9.69e-06)
v1: Removing PWL point (0.0042816,-9.7e-06)
v1: Removing PWL point (0.00428288,-9.71e-06)
v1: Removing PWL point (0.00428416,-9.72e-06)
v1: Removing PWL point (0.00428544,-9.73e-06)
v1: Removing PWL point (0.00428672,-9.74e-06)
v1: Removing PWL point (0.00428832,-9.75e-06)
v1: Removing PWL point (0.0042896,-9.76e-06)
v1: Removing PWL point (0.0042912,-9.77e-06)
v1: Removing PWL point (0.00429248,-9.78e-06)
v1: Removing PWL point (0.00429376,-9.79e-06)
v1: Removing PWL point (0.00429504,-9.8e-06)
v1: Removing PWL point (0.00429632,-9.81e-06)
v1: Removing PWL point (0.0042976,-9.82e-06)
v1: Removing PWL point (0.0042992,-9.83e-06)
v1: Removing PWL point (0.00430048,-9.84e-06)
v1: Removing PWL point (0.00430176,-9.85e-06)
v1: Removing PWL point (0.00430336,-9.86e-06)
v1: Removing PWL point (0.00430464,-9.87e-06)
v1: Removing PWL point (0.00430592,-9.88e-06)
v1: Removing PWL point (0.0043072,-9.89e-06)
v1: Removing PWL point (0.0043088,-9.9e-06)
v1: Removing PWL point (0.00431072,-9.91e-06)
v1: Removing PWL point (0.00431232,-9.92e-06)
v1: Removing PWL point (0.00431392,-9.93e-06)
v1: Removing PWL point (0.00431584,-9.94e-06)
v1: Removing PWL point (0.00431744,-9.95e-06)
v1: Removing PWL point (0.00431904,-9.96e-06)
v1: Removing PWL point (0.00432064,-9.97e-06)
v1: Removing PWL point (0.00432224,-9.98e-06)
v1: Removing PWL point (0.00432384,-9.99e-06)
v1: Removing PWL point (0.00432576,-1e-05)
v1: Removing PWL point (0.00433568,-1.01e-05)
v1: Removing PWL point (0.00435488,-1.02e-05)
v1: Removing PWL point (0.0043744,-1.03e-05)
v1: Removing PWL point (0.00439552,-1.04e-05)
v1: Removing PWL point (0.004416,-1.05e-05)
v1: Removing PWL point (0.00443904,-1.06e-05)
v1: Removing PWL point (0.004464,-1.07e-05)
v1: Removing PWL point (0.00448768,-1.08e-05)
v1: Removing PWL point (0.004512,-1.09e-05)
v1: Removing PWL point (0.00453568,-1.1e-05)
v1: Removing PWL point (0.00456064,-1.11e-05)
v1: Removing PWL point (0.00458592,-1.12e-05)
v1: Removing PWL point (0.0046112,-1.13e-05)
v1: Removing PWL point (0.00463712,-1.14e-05)
v1: Removing PWL point (0.00466304,-1.15e-05)
v1: Removing PWL point (0.00468704,-1.16e-05)
v1: Removing PWL point (0.00471104,-1.17e-05)
v1: Removing PWL point (0.004736,-1.18e-05)
v1: Removing PWL point (0.0047632,-1.19e-05)
v1: Removing PWL point (0.00478688,-1.2e-05)
v1: Removing PWL point (0.00481408,-1.21e-05)
v1: Removing PWL point (0.00484192,-1.22e-05)
v1: Removing PWL point (0.0048688,-1.23e-05)
v1: Removing PWL point (0.00489504,-1.24e-05)
v1: Removing PWL point (0.00492224,-1.25e-05)
v1: Removing PWL point (0.0049488,-1.26e-05)
v1: Removing PWL point (0.00497408,-1.27e-05)
v1: Removing PWL point (0.00499904,-1.28e-05)
v1: Removing PWL point (0.00502624,-1.29e-05)
v1: Removing PWL point (0.00505184,-1.3e-05)
v1: Removing PWL point (0.00507648,-1.31e-05)
v1: Removing PWL point (0.0051024,-1.32e-05)
v1: Removing PWL point (0.00512928,-1.33e-05)
v1: Removing PWL point (0.00515712,-1.34e-05)
v1: Removing PWL point (0.00518272,-1.35e-05)
v1: Removing PWL point (0.0052096,-1.36e-05)
v1: Removing PWL point (0.00523776,-1.37e-05)
v1: Removing PWL point (0.00526368,-1.38e-05)
v1: Removing PWL point (0.0052896,-1.39e-05)
v1: Removing PWL point (0.00531552,-1.4e-05)
v1: Removing PWL point (0.00534048,-1.41e-05)
v1: Removing PWL point (0.0053664,-1.42e-05)
v1: Removing PWL point (0.00539584,-1.43e-05)
v1: Removing PWL point (0.0054224,-1.44e-05)
v1: Removing PWL point (0.00545152,-1.45e-05)
v1: Removing PWL point (0.00547904,-1.46e-05)
v1: Removing PWL point (0.00550528,-1.47e-05)
v1: Removing PWL point (0.00553344,-1.48e-05)
v1: Removing PWL point (0.00556224,-1.49e-05)
v1: Removing PWL point (0.00559296,-1.5e-05)
v1: Removing PWL point (0.00561952,-1.51e-05)
v1: Removing PWL point (0.00564512,-1.52e-05)
v1: Removing PWL point (0.00567328,-1.53e-05)
v1: Removing PWL point (0.00570016,-1.54e-05)
v1: Removing PWL point (0.005728,-1.55e-05)
v1: Removing PWL point (0.0057568,-1.56e-05)
v1: Removing PWL point (0.00578496,-1.57e-05)
v1: Removing PWL point (0.00581504,-1.58e-05)
v1: Removing PWL point (0.00584384,-1.59e-05)
v1: Removing PWL point (0.00587232,-1.6e-05)
v1: Removing PWL point (0.0059008,-1.61e-05)
v1: Removing PWL point (0.005928,-1.62e-05)
v1: Removing PWL point (0.00595808,-1.63e-05)
v1: Removing PWL point (0.00599072,-1.64e-05)
v1: Removing PWL point (0.00602144,-1.65e-05)
v1: Removing PWL point (0.00605312,-1.66e-05)
v1: Removing PWL point (0.00608256,-1.67e-05)
v1: Removing PWL point (0.00611456,-1.68e-05)
v1: Removing PWL point (0.00614368,-1.69e-05)
v1: Removing PWL point (0.00617472,-1.7e-05)
v1: Removing PWL point (0.0062048,-1.71e-05)
v1: Removing PWL point (0.00623744,-1.72e-05)
v1: Removing PWL point (0.00626688,-1.73e-05)
v1: Removing PWL point (0.00629952,-1.74e-05)
v1: Removing PWL point (0.006328,-1.75e-05)
v1: Removing PWL point (0.00635808,-1.76e-05)
v1: Removing PWL point (0.0063888,-1.77e-05)
v1: Removing PWL point (0.00641888,-1.78e-05)
v1: Removing PWL point (0.00644832,-1.79e-05)
v1: Removing PWL point (0.00647936,-1.8e-05)
v1: Removing PWL point (0.00651104,-1.81e-05)
v1: Removing PWL point (0.0065408,-1.82e-05)
v1: Removing PWL point (0.00657056,-1.83e-05)
v1: Removing PWL point (0.00660384,-1.84e-05)
v1: Removing PWL point (0.0066336,-1.85e-05)
v1: Removing PWL point (0.00666304,-1.86e-05)
v1: Removing PWL point (0.00669248,-1.87e-05)
v1: Removing PWL point (0.0067248,-1.88e-05)
v1: Removing PWL point (0.00675872,-1.89e-05)
v1: Removing PWL point (0.00678944,-1.9e-05)
v1: Removing PWL point (0.00682208,-1.91e-05)
v1: Removing PWL point (0.00685504,-1.92e-05)
v1: Removing PWL point (0.00688576,-1.93e-05)
v1: Removing PWL point (0.00691648,-1.94e-05)
v1: Removing PWL point (0.00694784,-1.95e-05)
v1: Removing PWL point (0.00698016,-1.96e-05)
v1: Removing PWL point (0.00701088,-1.97e-05)
v1: Removing PWL point (0.00704704,-1.98e-05)
v1: Removing PWL point (0.00708064,-1.99e-05)
v1: Removing PWL point (0.0071136,-2e-05)
v1: Removing PWL point (0.00714912,-2.01e-05)
v1: Removing PWL point (0.00717824,-2.02e-05)
v1: Removing PWL point (0.00721344,-2.03e-05)
v1: Removing PWL point (0.00725248,-2.02e-05)
v1: Removing PWL point (0.00728064,-2.01e-05)
v1: Removing PWL point (0.00730656,-2e-05)
v1: Removing PWL point (0.00733216,-1.99e-05)
v1: Removing PWL point (0.00736,-1.98e-05)
v1: Removing PWL point (0.00738848,-1.97e-05)
v1: Removing PWL point (0.00743424,-1.96e-05)
v1: Removing PWL point (0.00748704,-1.95e-05)
v1: Removing PWL point (0.00753312,-1.94e-05)
v1: Removing PWL point (0.00757408,-1.93e-05)
v1: Removing PWL point (0.0075872,-1.92e-05)
v1: Removing PWL point (0.00759904,-1.91e-05)
v1: Removing PWL point (0.00761024,-1.9e-05)
v1: Removing PWL point (0.0076208,-1.89e-05)
v1: Removing PWL point (0.00763168,-1.88e-05)
v1: Removing PWL point (0.0076416,-1.87e-05)
v1: Removing PWL point (0.00765184,-1.86e-05)
v1: Removing PWL point (0.00766176,-1.85e-05)
v1: Removing PWL point (0.00767136,-1.84e-05)
v1: Removing PWL point (0.00768128,-1.83e-05)
v1: Removing PWL point (0.00769024,-1.82e-05)
v1: Removing PWL point (0.0076992,-1.81e-05)
v1: Removing PWL point (0.00770784,-1.8e-05)
v1: Removing PWL point (0.00771616,-1.79e-05)
v1: Removing PWL point (0.00772448,-1.78e-05)
v1: Removing PWL point (0.00773312,-1.77e-05)
v1: Removing PWL point (0.00774144,-1.76e-05)
v1: Removing PWL point (0.00774976,-1.75e-05)
v1: Removing PWL point (0.00775744,-1.74e-05)
v1: Removing PWL point (0.00776576,-1.73e-05)
v1: Removing PWL point (0.00777408,-1.72e-05)
v1: Removing PWL point (0.0077824,-1.71e-05)
v1: Removing PWL point (0.00779104,-1.7e-05)
v1: Removing PWL point (0.00779904,-1.69e-05)
v1: Removing PWL point (0.00780704,-1.68e-05)
v1: Removing PWL point (0.00781536,-1.67e-05)
v1: Removing PWL point (0.00782368,-1.66e-05)
v1: Removing PWL point (0.00783168,-1.65e-05)
v1: Removing PWL point (0.00784,-1.64e-05)
v1: Removing PWL point (0.00784768,-1.63e-05)
v1: Removing PWL point (0.007856,-1.62e-05)
v1: Removing PWL point (0.00786368,-1.61e-05)
v1: Removing PWL point (0.00787232,-1.6e-05)
v1: Removing PWL point (0.00788032,-1.59e-05)
v1: Removing PWL point (0.007888,-1.58e-05)
v1: Removing PWL point (0.007896,-1.57e-05)
v1: Removing PWL point (0.00790368,-1.56e-05)
v1: Removing PWL point (0.00791136,-1.55e-05)
v1: Removing PWL point (0.00791936,-1.54e-05)
v1: Removing PWL point (0.00792672,-1.53e-05)
v1: Removing PWL point (0.00793472,-1.52e-05)
v1: Removing PWL point (0.0079424,-1.51e-05)
v1: Removing PWL point (0.00795008,-1.5e-05)
v1: Removing PWL point (0.00795776,-1.49e-05)
v1: Removing PWL point (0.00796544,-1.48e-05)
v1: Removing PWL point (0.00797344,-1.47e-05)
v1: Removing PWL point (0.00798144,-1.46e-05)
v1: Removing PWL point (0.00798912,-1.45e-05)
v1: Removing PWL point (0.0079968,-1.44e-05)
v1: Removing PWL point (0.00800448,-1.43e-05)
v1: Removing PWL point (0.00801248,-1.42e-05)
v1: Removing PWL point (0.00802016,-1.41e-05)
v1: Removing PWL point (0.00802784,-1.4e-05)
v1: Removing PWL point (0.00803552,-1.39e-05)
v1: Removing PWL point (0.00804352,-1.38e-05)
v1: Removing PWL point (0.0080512,-1.37e-05)
v1: Removing PWL point (0.0080592,-1.36e-05)
v1: Removing PWL point (0.00806656,-1.35e-05)
v1: Removing PWL point (0.00807392,-1.34e-05)
v1: Removing PWL point (0.0080816,-1.33e-05)
v1: Removing PWL point (0.00808928,-1.32e-05)
v1: Removing PWL point (0.00809696,-1.31e-05)
v1: Removing PWL point (0.00810496,-1.3e-05)
v1: Removing PWL point (0.00811264,-1.29e-05)
v1: Removing PWL point (0.00812,-1.28e-05)
v1: Removing PWL point (0.00812768,-1.27e-05)
v1: Removing PWL point (0.00813536,-1.26e-05)
v1: Removing PWL point (0.00814304,-1.25e-05)
v1: Removing PWL point (0.00815072,-1.24e-05)
v1: Removing PWL point (0.00815808,-1.23e-05)
v1: Removing PWL point (0.00816576,-1.22e-05)
v1: Removing PWL point (0.00817344,-1.21e-05)
v1: Removing PWL point (0.0081808,-1.2e-05)
v1: Removing PWL point (0.00818848,-1.19e-05)
v1: Removing PWL point (0.00819616,-1.18e-05)
v1: Removing PWL point (0.00820352,-1.17e-05)
v1: Removing PWL point (0.00821152,-1.16e-05)
v1: Removing PWL point (0.0082192,-1.15e-05)
v1: Removing PWL point (0.00822688,-1.14e-05)
v1: Removing PWL point (0.00823456,-1.13e-05)
v1: Removing PWL point (0.00824224,-1.12e-05)
v1: Removing PWL point (0.0082496,-1.11e-05)
v1: Removing PWL point (0.00825728,-1.1e-05)
v1: Removing PWL point (0.00826496,-1.09e-05)
v1: Removing PWL point (0.00827264,-1.08e-05)
v1: Removing PWL point (0.00828032,-1.07e-05)
v1: Removing PWL point (0.008288,-1.06e-05)
v1: Removing PWL point (0.00829568,-1.05e-05)
v1: Removing PWL point (0.00830336,-1.04e-05)
v1: Removing PWL point (0.00831104,-1.03e-05)
v1: Removing PWL point (0.0083184,-1.02e-05)
v1: Removing PWL point (0.0083264,-1.01e-05)
v1: Removing PWL point (0.00833408,-1e-05)
v1: Removing PWL point (0.00833824,-9.99e-06)
v1: Removing PWL point (0.00834048,-9.96e-06)
v1: Removing PWL point (0.00834272,-9.93e-06)
v1: Removing PWL point (0.00834496,-9.9e-06)
v1: Removing PWL point (0.0083472,-9.87e-06)
v1: Removing PWL point (0.0083488,-9.85e-06)
v1: Removing PWL point (0.0083504,-9.83e-06)
v1: Removing PWL point (0.008352,-9.81e-06)
v1: Removing PWL point (0.0083536,-9.79e-06)
v1: Removing PWL point (0.00835584,-9.76e-06)
v1: Removing PWL point (0.00835872,-9.72e-06)
v1: Removing PWL point (0.00836032,-9.7e-06)
v1: Removing PWL point (0.00836256,-9.67e-06)
v1: Removing PWL point (0.00836544,-9.63e-06)
v1: Removing PWL point (0.00836704,-9.61e-06)
v1: Removing PWL point (0.00836928,-9.58e-06)
v1: Removing PWL point (0.00837152,-9.55e-06)
v1: Removing PWL point (0.00837376,-9.52e-06)
v1: Removing PWL point (0.008376,-9.49e-06)
v1: Removing PWL point (0.0083776,-9.47e-06)
v1: Removing PWL point (0.0083792,-9.45e-06)
v1: Removing PWL point (0.0083808,-9.43e-06)
v1: Removing PWL point (0.00838304,-9.4e-06)
v1: Removing PWL point (0.00838464,-9.38e-06)
v1: Removing PWL point (0.00838688,-9.35e-06)
v1: Removing PWL point (0.00838912,-9.32e-06)
v1: Removing PWL point (0.00839136,-9.29e-06)
v1: Removing PWL point (0.0083936,-9.26e-06)
v1: Removing PWL point (0.00839648,-9.22e-06)
v1: Removing PWL point (0.00839872,-9.19e-06)
v1: Removing PWL point (0.00840096,-9.16e-06)
v1: Removing PWL point (0.0084032,-9.13e-06)
v1: Removing PWL point (0.0084048,-9.11e-06)
v1: Removing PWL point (0.0084064,-9.09e-06)
v1: Removing PWL point (0.00840864,-9.06e-06)
v1: Removing PWL point (0.00841088,-9.03e-06)
v1: Removing PWL point (0.00841312,-9e-06)
v1: Removing PWL point (0.00841472,-8.98e-06)
v1: Removing PWL point (0.00841632,-8.96e-06)
v1: Removing PWL point (0.00841856,-8.93e-06)
v1: Removing PWL point (0.00842144,-8.89e-06)
v1: Removing PWL point (0.00842368,-8.86e-06)
v1: Removing PWL point (0.00842528,-8.84e-06)
v1: Removing PWL point (0.00842688,-8.82e-06)
v1: Removing PWL point (0.00842912,-8.79e-06)
v1: Removing PWL point (0.00843072,-8.77e-06)
v1: Removing PWL point (0.00843296,-8.74e-06)
v1: Removing PWL point (0.0084352,-8.71e-06)
v1: Removing PWL point (0.00843744,-8.68e-06)
v1: Removing PWL point (0.00843904,-8.66e-06)
v1: Removing PWL point (0.00844064,-8.64e-06)
v1: Removing PWL point (0.00844288,-8.61e-06)
v1: Removing PWL point (0.00844512,-8.58e-06)
v1: Removing PWL point (0.008448,-8.54e-06)
v1: Removing PWL point (0.00845024,-8.51e-06)
v1: Removing PWL point (0.00845376,-8.46e-06)
v1: Removing PWL point (0.008456,-8.43e-06)
v1: Removing PWL point (0.0084576,-8.41e-06)
v1: Removing PWL point (0.00845984,-8.38e-06)
v1: Removing PWL point (0.00846144,-8.36e-06)
v1: Removing PWL point (0.00846304,-8.34e-06)
v1: Removing PWL point (0.00846528,-8.31e-06)
v1: Removing PWL point (0.00846752,-8.28e-06)
v1: Removing PWL point (0.00846976,-8.25e-06)
v1: Removing PWL point (0.00847136,-8.23e-06)
v1: Removing PWL point (0.00847296,-8.21e-06)
v1: Removing PWL point (0.00847456,-8.19e-06)
v1: Removing PWL point (0.00847616,-8.17e-06)
v1: Removing PWL point (0.0084784,-8.14e-06)
v1: Removing PWL point (0.00848,-8.12e-06)
v1: Removing PWL point (0.0084816,-8.1e-06)
v1: Removing PWL point (0.00848256,-8.09e-06)
v1: Removing PWL point (0.00848416,-8.07e-06)
v1: Removing PWL point (0.00848512,-8.06e-06)
v1: Removing PWL point (0.00848672,-8.04e-06)
v1: Removing PWL point (0.00848832,-8.02e-06)
v1: Removing PWL point (0.00848992,-8e-06)
v1: Removing PWL point (0.00849216,-7.97e-06)
v1: Removing PWL point (0.0084944,-7.94e-06)
v1: Removing PWL point (0.00849792,-7.89e-06)
v1: Removing PWL point (0.00850016,-7.86e-06)
v1: Removing PWL point (0.0085024,-7.83e-06)
v1: Removing PWL point (0.008504,-7.81e-06)
v1: Removing PWL point (0.0085056,-7.79e-06)
v1: Removing PWL point (0.00850784,-7.76e-06)
v1: Removing PWL point (0.00850944,-7.74e-06)
v1: Removing PWL point (0.00851104,-7.72e-06)
v1: Removing PWL point (0.00851328,-7.69e-06)
v1: Removing PWL point (0.00851488,-7.67e-06)
v1: Removing PWL point (0.00851648,-7.65e-06)
v1: Removing PWL point (0.00851872,-7.62e-06)
v1: Removing PWL point (0.00852032,-7.6e-06)
v1: Removing PWL point (0.00852256,-7.57e-06)
v1: Removing PWL point (0.00852416,-7.55e-06)
v1: Removing PWL point (0.00852576,-7.53e-06)
v1: Removing PWL point (0.00852672,-7.52e-06)
v1: Removing PWL point (0.00852832,-7.5e-06)
v1: Removing PWL point (0.00852992,-7.48e-06)
v1: Removing PWL point (0.00853216,-7.45e-06)
v1: Removing PWL point (0.00853376,-7.43e-06)
v1: Removing PWL point (0.00853536,-7.41e-06)
v1: Removing PWL point (0.00853696,-7.39e-06)
v1: Removing PWL point (0.00853856,-7.37e-06)
v1: Removing PWL point (0.00854016,-7.35e-06)
v1: Removing PWL point (0.00854176,-7.33e-06)
v1: Removing PWL point (0.00854336,-7.31e-06)
v1: Removing PWL point (0.00854496,-7.29e-06)
v1: Removing PWL point (0.0085472,-7.26e-06)
v1: Removing PWL point (0.00854944,-7.23e-06)
v1: Removing PWL point (0.00855104,-7.21e-06)
v1: Removing PWL point (0.00855264,-7.19e-06)
v1: Removing PWL point (0.00855424,-7.17e-06)
v1: Removing PWL point (0.00855584,-7.15e-06)
v1: Removing PWL point (0.00855808,-7.12e-06)
v1: Removing PWL point (0.00856032,-7.09e-06)
v1: Removing PWL point (0.00856256,-7.06e-06)
v1: Removing PWL point (0.0085648,-7.03e-06)
v1: Removing PWL point (0.0085664,-7.01e-06)
v1: Removing PWL point (0.008568,-6.99e-06)
v1: Removing PWL point (0.0085696,-6.97e-06)
v1: Removing PWL point (0.0085712,-6.95e-06)
v1: Removing PWL point (0.00857344,-6.92e-06)
v1: Removing PWL point (0.00857568,-6.89e-06)
v1: Removing PWL point (0.00857728,-6.87e-06)
v1: Removing PWL point (0.00857952,-6.84e-06)
v1: Removing PWL point (0.00858176,-6.81e-06)
v1: Removing PWL point (0.008584,-6.78e-06)
v1: Removing PWL point (0.0085856,-6.76e-06)
v1: Removing PWL point (0.0085872,-6.74e-06)
v1: Removing PWL point (0.00858944,-6.71e-06)
v1: Removing PWL point (0.00859104,-6.69e-06)
v1: Removing PWL point (0.00859328,-6.66e-06)
v1: Removing PWL point (0.00859552,-6.63e-06)
v1: Removing PWL point (0.0085984,-6.59e-06)
v1: Removing PWL point (0.0086,-6.57e-06)
v1: Removing PWL point (0.00860224,-6.54e-06)
v1: Removing PWL point (0.00860384,-6.52e-06)
v1: Removing PWL point (0.00860608,-6.49e-06)
v1: Removing PWL point (0.00860832,-6.46e-06)
v1: Removing PWL point (0.00860992,-6.44e-06)
v1: Removing PWL point (0.00861152,-6.42e-06)
v1: Removing PWL point (0.00861312,-6.4e-06)
v1: Removing PWL point (0.00861472,-6.38e-06)
v1: Removing PWL point (0.00861632,-6.36e-06)
v1: Removing PWL point (0.00861856,-6.33e-06)
v1: Removing PWL point (0.00862016,-6.31e-06)
v1: Removing PWL point (0.00862176,-6.29e-06)
v1: Removing PWL point (0.00862336,-6.27e-06)
v1: Removing PWL point (0.00862496,-6.25e-06)
v1: Removing PWL point (0.0086272,-6.22e-06)
v1: Removing PWL point (0.0086288,-6.2e-06)
v1: Removing PWL point (0.0086304,-6.18e-06)
v1: Removing PWL point (0.00863264,-6.15e-06)
v1: Removing PWL point (0.00863488,-6.12e-06)
v1: Removing PWL point (0.00863712,-6.09e-06)
v1: Removing PWL point (0.00863872,-6.07e-06)
v1: Removing PWL point (0.00863968,-6.06e-06)
v1: Removing PWL point (0.00864128,-6.04e-06)
v1: Removing PWL point (0.00864352,-6.01e-06)
v1: Removing PWL point (0.00864576,-5.98e-06)
v1: Removing PWL point (0.00864736,-5.96e-06)
v1: Removing PWL point (0.0086496,-5.93e-06)
v1: Removing PWL point (0.0086512,-5.91e-06)
v1: Removing PWL point (0.0086528,-5.89e-06)
v1: Removing PWL point (0.00865504,-5.86e-06)
v1: Removing PWL point (0.00865664,-5.84e-06)
v1: Removing PWL point (0.00865824,-5.82e-06)
v1: Removing PWL point (0.00865984,-5.8e-06)
v1: Removing PWL point (0.00866208,-5.77e-06)
v1: Removing PWL point (0.00866368,-5.75e-06)
v1: Removing PWL point (0.00866592,-5.72e-06)
v1: Removing PWL point (0.00866752,-5.7e-06)
v1: Removing PWL point (0.00866912,-5.68e-06)
v1: Removing PWL point (0.00867072,-5.66e-06)
v1: Removing PWL point (0.00867232,-5.64e-06)
v1: Removing PWL point (0.00867456,-5.61e-06)
v1: Removing PWL point (0.0086768,-5.58e-06)
v1: Removing PWL point (0.0086784,-5.56e-06)
v1: Removing PWL point (0.00868,-5.54e-06)
v1: Removing PWL point (0.00868224,-5.51e-06)
v1: Removing PWL point (0.00868384,-5.49e-06)
v1: Removing PWL point (0.00868544,-5.47e-06)
v1: Removing PWL point (0.00868704,-5.45e-06)
v1: Removing PWL point (0.00868864,-5.43e-06)
v1: Removing PWL point (0.00869088,-5.4e-06)
v1: Removing PWL point (0.00869248,-5.38e-06)
v1: Removing PWL point (0.00869408,-5.36e-06)
v1: Removing PWL point (0.00869504,-5.35e-06)
v1: Removing PWL point (0.00869664,-5.33e-06)
v1: Removing PWL point (0.00869824,-5.31e-06)
v1: Removing PWL point (0.00869984,-5.29e-06)
v1: Removing PWL point (0.00870144,-5.27e-06)
v1: Removing PWL point (0.00870304,-5.25e-06)
v1: Removing PWL point (0.008704,-5.24e-06)
v1: Removing PWL point (0.0087056,-5.22e-06)
v1: Removing PWL point (0.0087072,-5.2e-06)
v1: Removing PWL point (0.00870816,-5.19e-06)
v1: Removing PWL point (0.00870976,-5.17e-06)
v1: Removing PWL point (0.00871136,-5.15e-06)
v1: Removing PWL point (0.00871296,-5.13e-06)
v1: Removing PWL point (0.00871456,-5.11e-06)
v1: Removing PWL point (0.00871616,-5.09e-06)
v1: Removing PWL point (0.00871776,-5.07e-06)
v1: Removing PWL point (0.00871936,-5.05e-06)
v1: Removing PWL point (0.00872096,-5.03e-06)
v1: Removing PWL point (0.00872256,-5.01e-06)
v1: Removing PWL point (0.00872416,-4.99e-06)
v1: Removing PWL point (0.00872576,-4.97e-06)
v1: Removing PWL point (0.008728,-4.94e-06)
v1: Removing PWL point (0.0087296,-4.92e-06)
v1: Removing PWL point (0.0087312,-4.9e-06)
v1: Removing PWL point (0.0087328,-4.88e-06)
v1: Removing PWL point (0.0087344,-4.86e-06)
v1: Removing PWL point (0.008736,-4.84e-06)
v1: Removing PWL point (0.00873696,-4.83e-06)
v1: Removing PWL point (0.00873856,-4.81e-06)
v1: Removing PWL point (0.00874016,-4.79e-06)
v1: Removing PWL point (0.00874112,-4.78e-06)
v1: Removing PWL point (0.00874272,-4.76e-06)
v1: Removing PWL point (0.00874432,-4.74e-06)
v1: Removing PWL point (0.00874592,-4.72e-06)
v1: Removing PWL point (0.00874752,-4.7e-06)
v1: Removing PWL point (0.00874912,-4.68e-06)
v1: Removing PWL point (0.00875072,-4.66e-06)
v1: Removing PWL point (0.00875168,-4.65e-06)
v1: Removing PWL point (0.00875328,-4.63e-06)
v1: Removing PWL point (0.00875424,-4.62e-06)
v1: Removing PWL point (0.0087552,-4.61e-06)
v1: Removing PWL point (0.00875616,-4.6e-06)
v1: Removing PWL point (0.00875776,-4.58e-06)
v1: Removing PWL point (0.00875872,-4.57e-06)
v1: Removing PWL point (0.00876032,-4.55e-06)
v1: Removing PWL point (0.00876128,-4.54e-06)
v1: Removing PWL point (0.00876288,-4.52e-06)
v1: Removing PWL point (0.00876384,-4.51e-06)
v1: Removing PWL point (0.00876544,-4.49e-06)
v1: Removing PWL point (0.0087664,-4.48e-06)
v1: Removing PWL point (0.008768,-4.46e-06)
v1: Removing PWL point (0.00876896,-4.45e-06)
v1: Removing PWL point (0.00877056,-4.43e-06)
v1: Removing PWL point (0.00877152,-4.42e-06)
v1: Removing PWL point (0.00877312,-4.4e-06)
v1: Removing PWL point (0.00877408,-4.39e-06)
v1: Removing PWL point (0.00877568,-4.37e-06)
v1: Removing PWL point (0.00877664,-4.36e-06)
v1: Removing PWL point (0.00877824,-4.34e-06)
v1: Removing PWL point (0.0087792,-4.33e-06)
v1: Removing PWL point (0.00878016,-4.32e-06)
v1: Removing PWL point (0.00878176,-4.3e-06)
v1: Removing PWL point (0.00878272,-4.29e-06)
v1: Removing PWL point (0.00878368,-4.28e-06)
v1: Removing PWL point (0.00878464,-4.27e-06)
v1: Removing PWL point (0.0087856,-4.26e-06)
v1: Removing PWL point (0.0087872,-4.24e-06)
v1: Removing PWL point (0.00878816,-4.23e-06)
v1: Removing PWL point (0.00878912,-4.22e-06)
v1: Removing PWL point (0.00879008,-4.21e-06)
v1: Removing PWL point (0.00879104,-4.2e-06)
v1: Removing PWL point (0.008792,-4.19e-06)
v1: Removing PWL point (0.00879296,-4.18e-06)
v1: Removing PWL point (0.00879392,-4.17e-06)
v1: Removing PWL point (0.00879488,-4.16e-06)
v1: Removing PWL point (0.00879584,-4.15e-06)
v1: Removing PWL point (0.00879744,-4.13e-06)
v1: Removing PWL point (0.0087984,-4.12e-06)
v1: Removing PWL point (0.00879936,-4.11e-06)
v1: Removing PWL point (0.00880032,-4.1e-06)
v1: Removing PWL point (0.00880128,-4.09e-06)
v1: Removing PWL point (0.00880224,-4.08e-06)
v1: Removing PWL point (0.0088032,-4.07e-06)
v1: Removing PWL point (0.00880416,-4.06e-06)
v1: Removing PWL point (0.00880512,-4.05e-06)
v1: Removing PWL point (0.00880608,-4.04e-06)
v1: Removing PWL point (0.00880704,-4.03e-06)
v1: Removing PWL point (0.008808,-4.02e-06)
v1: Removing PWL point (0.00880896,-4.01e-06)
v1: Removing PWL point (0.00880992,-4e-06)
v1: Removing PWL point (0.00881088,-3.99e-06)
v1: Removing PWL point (0.00881216,-3.98e-06)
v1: Removing PWL point (0.00881312,-3.97e-06)
v1: Removing PWL point (0.0088144,-3.96e-06)
v1: Removing PWL point (0.00881536,-3.95e-06)
v1: Removing PWL point (0.00881632,-3.94e-06)
v1: Removing PWL point (0.0088176,-3.93e-06)
v1: Removing PWL point (0.00881856,-3.92e-06)
v1: Removing PWL point (0.00881984,-3.91e-06)
v1: Removing PWL point (0.0088208,-3.9e-06)
v1: Removing PWL point (0.00882176,-3.89e-06)
v1: Removing PWL point (0.00882304,-3.88e-06)
v1: Removing PWL point (0.008824,-3.87e-06)
v1: Removing PWL point (0.00882496,-3.86e-06)
v1: Removing PWL point (0.00882624,-3.85e-06)
v1: Removing PWL point (0.0088272,-3.84e-06)
v1: Removing PWL point (0.00882848,-3.83e-06)
v1: Removing PWL point (0.00882976,-3.82e-06)
v1: Removing PWL point (0.00883104,-3.81e-06)
v1: Removing PWL point (0.00883232,-3.8e-06)
v1: Removing PWL point (0.0088336,-3.79e-06)
v1: Removing PWL point (0.00883488,-3.78e-06)
v1: Removing PWL point (0.00883616,-3.77e-06)
v1: Removing PWL point (0.00883744,-3.76e-06)
v1: Removing PWL point (0.00883872,-3.75e-06)
v1: Removing PWL point (0.00884,-3.74e-06)
v1: Removing PWL point (0.00884128,-3.73e-06)
v1: Removing PWL point (0.00884224,-3.72e-06)
v1: Removing PWL point (0.00884352,-3.71e-06)
v1: Removing PWL point (0.00884512,-3.7e-06)
v1: Removing PWL point (0.0088464,-3.69e-06)
v1: Removing PWL point (0.008848,-3.68e-06)
v1: Removing PWL point (0.00884928,-3.67e-06)
v1: Removing PWL point (0.00885088,-3.66e-06)
v1: Removing PWL point (0.00885248,-3.65e-06)
v1: Removing PWL point (0.00885376,-3.64e-06)
v1: Removing PWL point (0.00885536,-3.63e-06)
v1: Removing PWL point (0.00885696,-3.62e-06)
v1: Removing PWL point (0.00885824,-3.61e-06)
v1: Removing PWL point (0.00886016,-3.6e-06)
v1: Removing PWL point (0.00886176,-3.59e-06)
v1: Removing PWL point (0.00886336,-3.58e-06)
v1: Removing PWL point (0.00886496,-3.57e-06)
v1: Removing PWL point (0.00886624,-3.56e-06)
v1: Removing PWL point (0.00886784,-3.55e-06)
v1: Removing PWL point (0.00886976,-3.54e-06)
v1: Removing PWL point (0.00887168,-3.53e-06)
v1: Removing PWL point (0.0088736,-3.52e-06)
v1: Removing PWL point (0.0088752,-3.51e-06)
v1: Removing PWL point (0.0088768,-3.5e-06)
v1: Removing PWL point (0.00887872,-3.49e-06)
v1: Removing PWL point (0.00888096,-3.48e-06)
v1: Removing PWL point (0.00888288,-3.47e-06)
v1: Removing PWL point (0.0088848,-3.46e-06)
v1: Removing PWL point (0.00888704,-3.45e-06)
v1: Removing PWL point (0.00888928,-3.44e-06)
v1: Removing PWL point (0.00889152,-3.43e-06)
v1: Removing PWL point (0.00889408,-3.42e-06)
v1: Removing PWL point (0.00889632,-3.41e-06)
v1: Removing PWL point (0.00889888,-3.4e-06)
v1: Removing PWL point (0.00890112,-3.39e-06)
v1: Removing PWL point (0.00890336,-3.38e-06)
v1: Removing PWL point (0.00890592,-3.37e-06)
v1: Removing PWL point (0.00890816,-3.36e-06)
v1: Removing PWL point (0.00891008,-3.35e-06)
v1: Removing PWL point (0.00891232,-3.34e-06)
v1: Removing PWL point (0.00891456,-3.33e-06)
v1: Removing PWL point (0.0089168,-3.32e-06)
v1: Removing PWL point (0.00891904,-3.31e-06)
v1: Removing PWL point (0.0089216,-3.3e-06)
v1: Removing PWL point (0.00892384,-3.29e-06)
v1: Removing PWL point (0.00892608,-3.28e-06)
v1: Removing PWL point (0.00892864,-3.27e-06)
v1: Removing PWL point (0.00893088,-3.26e-06)
v1: Removing PWL point (0.00893312,-3.25e-06)
v1: Removing PWL point (0.00893536,-3.24e-06)
v1: Removing PWL point (0.00893792,-3.23e-06)
v1: Removing PWL point (0.0089408,-3.22e-06)
v1: Removing PWL point (0.00894336,-3.21e-06)
v1: Removing PWL point (0.00894624,-3.2e-06)
v1: Removing PWL point (0.00894976,-3.19e-06)
v1: Removing PWL point (0.00895296,-3.18e-06)
v1: Removing PWL point (0.00895616,-3.17e-06)
v1: Removing PWL point (0.00895904,-3.16e-06)
v1: Removing PWL point (0.00896192,-3.15e-06)
v1: Removing PWL point (0.00896448,-3.14e-06)
v1: Removing PWL point (0.00896768,-3.13e-06)
v1: Removing PWL point (0.00897056,-3.12e-06)
v1: Removing PWL point (0.00897408,-3.11e-06)
v1: Removing PWL point (0.00897728,-3.1e-06)
v1: Removing PWL point (0.0089808,-3.09e-06)
v1: Removing PWL point (0.00898368,-3.08e-06)
v1: Removing PWL point (0.00898656,-3.07e-06)
v1: Removing PWL point (0.00898976,-3.06e-06)
v1: Removing PWL point (0.00899328,-3.05e-06)
v1: Removing PWL point (0.0089968,-3.04e-06)
v1: Removing PWL point (0.009,-3.03e-06)
v1: Removing PWL point (0.00900288,-3.02e-06)
v1: Removing PWL point (0.00900608,-3.01e-06)
v1: Removing PWL point (0.00900928,-3e-06)
v1: Removing PWL point (0.00901312,-2.99e-06)
v1: Removing PWL point (0.00901664,-2.98e-06)
v1: Removing PWL point (0.00901984,-2.97e-06)
v1: Removing PWL point (0.0090224,-2.96e-06)
v1: Removing PWL point (0.00902528,-2.95e-06)
v1: Removing PWL point (0.00902944,-2.94e-06)
v1: Removing PWL point (0.0090336,-2.93e-06)
v1: Removing PWL point (0.0090368,-2.92e-06)
v1: Removing PWL point (0.00903968,-2.91e-06)
v1: Removing PWL point (0.00904352,-2.9e-06)
v1: Removing PWL point (0.0090464,-2.89e-06)
v1: Removing PWL point (0.00904928,-2.88e-06)
v1: Removing PWL point (0.00905216,-2.87e-06)
v1: Removing PWL point (0.00905504,-2.86e-06)
v1: Removing PWL point (0.00905792,-2.85e-06)
v1: Removing PWL point (0.00906144,-2.84e-06)
v1: Removing PWL point (0.00906496,-2.83e-06)
v1: Removing PWL point (0.00906816,-2.82e-06)
v1: Removing PWL point (0.00907104,-2.81e-06)
v1: Removing PWL point (0.0090736,-2.8e-06)
v1: Removing PWL point (0.00907712,-2.79e-06)
v1: Removing PWL point (0.00908096,-2.78e-06)
v1: Removing PWL point (0.00908384,-2.77e-06)
v1: Removing PWL point (0.00908672,-2.76e-06)
v1: Removing PWL point (0.00908992,-2.75e-06)
v1: Removing PWL point (0.0090928,-2.74e-06)
v1: Removing PWL point (0.00909632,-2.73e-06)
v1: Removing PWL point (0.00910048,-2.72e-06)
v1: Removing PWL point (0.00910464,-2.71e-06)
v1: Removing PWL point (0.00910912,-2.7e-06)
v1: Removing PWL point (0.00911264,-2.69e-06)
v1: Removing PWL point (0.00911584,-2.68e-06)
v1: Removing PWL point (0.00911904,-2.67e-06)
v1: Removing PWL point (0.00912224,-2.66e-06)
v1: Removing PWL point (0.00912704,-2.65e-06)
v1: Removing PWL point (0.00913056,-2.64e-06)
v1: Removing PWL point (0.00913376,-2.63e-06)
v1: Removing PWL point (0.00913664,-2.62e-06)
v1: Removing PWL point (0.00914016,-2.61e-06)
v1: Removing PWL point (0.00914368,-2.6e-06)
v1: Removing PWL point (0.00914688,-2.59e-06)
v1: Removing PWL point (0.00914976,-2.58e-06)
v1: Removing PWL point (0.00915264,-2.57e-06)
v1: Removing PWL point (0.00915584,-2.56e-06)
v1: Removing PWL point (0.00915936,-2.55e-06)
v1: Removing PWL point (0.00916256,-2.54e-06)
v1: Removing PWL point (0.00916544,-2.53e-06)
v1: Removing PWL point (0.00916832,-2.52e-06)
v1: Removing PWL point (0.00917152,-2.51e-06)
v1: Removing PWL point (0.00917472,-2.5e-06)
v1: Removing PWL point (0.00917824,-2.49e-06)
v1: Removing PWL point (0.00918176,-2.48e-06)
v1: Removing PWL point (0.0091856,-2.47e-06)
v1: Removing PWL point (0.00918912,-2.46e-06)
v1: Removing PWL point (0.00919264,-2.45e-06)
v1: Removing PWL point (0.00919552,-2.44e-06)
v1: Removing PWL point (0.00919872,-2.43e-06)
v1: Removing PWL point (0.00920224,-2.42e-06)
v1: Removing PWL point (0.00920544,-2.41e-06)
v1: Removing PWL point (0.00920896,-2.4e-06)
v1: Removing PWL point (0.00921248,-2.39e-06)
v1: Removing PWL point (0.00921536,-2.38e-06)
v1: Removing PWL point (0.00921824,-2.37e-06)
v1: Removing PWL point (0.00922208,-2.36e-06)
v1: Removing PWL point (0.00922528,-2.35e-06)
v1: Removing PWL point (0.00922944,-2.34e-06)
v1: Removing PWL point (0.00923296,-2.33e-06)
v1: Removing PWL point (0.00923616,-2.32e-06)
v1: Removing PWL point (0.00923968,-2.31e-06)
v1: Removing PWL point (0.00924384,-2.3e-06)
v1: Removing PWL point (0.00924736,-2.29e-06)
v1: Removing PWL point (0.00925088,-2.28e-06)
v1: Removing PWL point (0.00925408,-2.27e-06)
v1: Removing PWL point (0.00925728,-2.26e-06)
v1: Removing PWL point (0.0092608,-2.25e-06)
v1: Removing PWL point (0.00926368,-2.24e-06)
v1: Removing PWL point (0.0092672,-2.23e-06)
v1: Removing PWL point (0.00927008,-2.22e-06)
v1: Removing PWL point (0.00927328,-2.21e-06)
v1: Removing PWL point (0.00927712,-2.2e-06)
v1: Removing PWL point (0.00928096,-2.19e-06)
v1: Removing PWL point (0.00928448,-2.18e-06)
v1: Removing PWL point (0.00928736,-2.17e-06)
v1: Removing PWL point (0.00929024,-2.16e-06)
v1: Removing PWL point (0.00929312,-2.15e-06)
v1: Removing PWL point (0.00929568,-2.14e-06)
v1: Removing PWL point (0.00929824,-2.13e-06)
v1: Removing PWL point (0.00930112,-2.12e-06)
v1: Removing PWL point (0.00930432,-2.11e-06)
v1: Removing PWL point (0.00930784,-2.1e-06)
[...]
v1: Removing PWL point (0.018,-5.4e-06)
v1: Removing PWL point (0.0180019,-5.39e-06)
v1: Removing PWL point (0.0180042,-5.38e-06)
v1: Removing PWL point (0.0180061,-5.37e-06)
v1: Removing PWL point (0.0180083,-5.36e-06)
v1: Removing PWL point (0.0180102,-5.35e-06)
v1: Removing PWL point (0.0180125,-5.34e-06)
v1: Removing PWL point (0.0180147,-5.33e-06)
v1: Removing PWL point (0.018017,-5.32e-06)
v1: Removing PWL point (0.0180195,-5.31e-06)
v1: Removing PWL point (0.0180221,-5.3e-06)
v1: Removing PWL point (0.018025,-5.29e-06)
v1: Removing PWL point (0.0180278,-5.28e-06)
v1: Removing PWL point (0.018031,-5.27e-06)
v1: Removing PWL point (0.0180333,-5.26e-06)
v1: Removing PWL point (0.0180355,-5.25e-06)
v1: Removing PWL point (0.0180378,-5.24e-06)
v1: Removing PWL point (0.0180403,-5.23e-06)
v1: Removing PWL point (0.0180429,-5.22e-06)
v1: Removing PWL point (0.0180458,-5.21e-06)
v1: Removing PWL point (0.0180486,-5.2e-06)
v1: Removing PWL point (0.0180518,-5.19e-06)
v1: Removing PWL point (0.0180557,-5.18e-06)
v1: Removing PWL point (0.0180589,-5.17e-06)
v1: Removing PWL point (0.0180621,-5.16e-06)
v1: Removing PWL point (0.018065,-5.15e-06)
v1: Removing PWL point (0.0180682,-5.14e-06)
v1: Removing PWL point (0.0180714,-5.13e-06)
v1: Removing PWL point (0.0180742,-5.12e-06)
v1: Removing PWL point (0.0180774,-5.11e-06)
v1: Removing PWL point (0.0180813,-5.1e-06)
v1: Removing PWL point (0.0180845,-5.09e-06)
v1: Removing PWL point (0.018087,-5.08e-06)
v1: Removing PWL point (0.0180902,-5.07e-06)
v1: Removing PWL point (0.0180938,-5.06e-06)
v1: Removing PWL point (0.018097,-5.05e-06)
v1: Removing PWL point (0.0181002,-5.04e-06)
v1: Removing PWL point (0.0181037,-5.03e-06)
v1: Removing PWL point (0.0181069,-5.02e-06)
v1: Removing PWL point (0.0181098,-5.01e-06)
v1: Removing PWL point (0.0181126,-5e-06)
v1: Removing PWL point (0.0181158,-4.99e-06)
v1: Removing PWL point (0.018119,-4.98e-06)
v1: Removing PWL point (0.0181219,-4.97e-06)
v1: Removing PWL point (0.0181248,-4.96e-06)
v1: Removing PWL point (0.0181277,-4.95e-06)
v1: Removing PWL point (0.0181309,-4.94e-06)
v1: Removing PWL point (0.0181341,-4.93e-06)
v1: Removing PWL point (0.018137,-4.92e-06)
v1: Removing PWL point (0.0181395,-4.91e-06)
v1: Removing PWL point (0.018143,-4.9e-06)
v1: Removing PWL point (0.0181462,-4.89e-06)
v1: Removing PWL point (0.0181494,-4.88e-06)
v1: Removing PWL point (0.0181526,-4.87e-06)
v1: Removing PWL point (0.0181555,-4.86e-06)
v1: Removing PWL point (0.0181587,-4.85e-06)
v1: Removing PWL point (0.0181616,-4.84e-06)
v1: Removing PWL point (0.0181654,-4.83e-06)
v1: Removing PWL point (0.0181693,-4.82e-06)
v1: Removing PWL point (0.0181725,-4.81e-06)
v1: Removing PWL point (0.0181757,-4.8e-06)
v1: Removing PWL point (0.0181795,-4.79e-06)
v1: Removing PWL point (0.0181834,-4.78e-06)
v1: Removing PWL point (0.0181869,-4.77e-06)
v1: Removing PWL point (0.0181904,-4.76e-06)
v1: Removing PWL point (0.0181939,-4.75e-06)
v1: Removing PWL point (0.0181965,-4.74e-06)
v1: Removing PWL point (0.018199,-4.73e-06)
v1: Removing PWL point (0.0182026,-4.72e-06)
v1: Removing PWL point (0.0182058,-4.71e-06)
v1: Removing PWL point (0.0182093,-4.7e-06)
v1: Removing PWL point (0.0182134,-4.69e-06)
v1: Removing PWL point (0.0182166,-4.68e-06)
v1: Removing PWL point (0.0182198,-4.67e-06)
v1: Removing PWL point (0.018224,-4.66e-06)
v1: Removing PWL point (0.0182266,-4.65e-06)
v1: Removing PWL point (0.0182294,-4.64e-06)
v1: Removing PWL point (0.0182336,-4.63e-06)
v1: Removing PWL point (0.0182368,-4.62e-06)
v1: Removing PWL point (0.01824,-4.61e-06)
v1: Removing PWL point (0.0182435,-4.6e-06)
v1: Removing PWL point (0.018247,-4.59e-06)
v1: Removing PWL point (0.0182506,-4.58e-06)
v1: Removing PWL point (0.0182534,-4.57e-06)
v1: Removing PWL point (0.0182563,-4.56e-06)
v1: Removing PWL point (0.0182595,-4.55e-06)
v1: Removing PWL point (0.0182634,-4.54e-06)
v1: Removing PWL point (0.0182675,-4.53e-06)
v1: Removing PWL point (0.0182707,-4.52e-06)
v1: Removing PWL point (0.0182739,-4.51e-06)
v1: Removing PWL point (0.0182771,-4.5e-06)
v1: Removing PWL point (0.01828,-4.49e-06)
v1: Removing PWL point (0.0182842,-4.48e-06)
v1: Removing PWL point (0.0182874,-4.47e-06)
v1: Removing PWL point (0.0182902,-4.46e-06)
v1: Removing PWL point (0.0182934,-4.45e-06)
v1: Removing PWL point (0.018296,-4.44e-06)
v1: Removing PWL point (0.0182989,-4.43e-06)
v1: Removing PWL point (0.0183024,-4.42e-06)
v1: Removing PWL point (0.0183062,-4.41e-06)
v1: Removing PWL point (0.0183098,-4.4e-06)
v1: Removing PWL point (0.0183136,-4.39e-06)
v1: Removing PWL point (0.0183165,-4.38e-06)
v1: Removing PWL point (0.018321,-4.37e-06)
v1: Removing PWL point (0.0183248,-4.36e-06)
v1: Removing PWL point (0.018329,-4.35e-06)
v1: Removing PWL point (0.0183325,-4.34e-06)
v1: Removing PWL point (0.018336,-4.33e-06)
v1: Removing PWL point (0.0183398,-4.32e-06)
v1: Removing PWL point (0.0183434,-4.31e-06)
v1: Removing PWL point (0.0183462,-4.3e-06)
v1: Removing PWL point (0.0183491,-4.29e-06)
v1: Removing PWL point (0.018353,-4.28e-06)
v1: Removing PWL point (0.0183565,-4.27e-06)
v1: Removing PWL point (0.0183597,-4.26e-06)
v1: Removing PWL point (0.0183632,-4.25e-06)
v1: Removing PWL point (0.018367,-4.24e-06)
v1: Removing PWL point (0.0183712,-4.23e-06)
v1: Removing PWL point (0.0183757,-4.22e-06)
v1: Removing PWL point (0.0183798,-4.21e-06)
v1: Removing PWL point (0.018383,-4.2e-06)
v1: Removing PWL point (0.0183869,-4.19e-06)
v1: Removing PWL point (0.0183898,-4.18e-06)
v1: Removing PWL point (0.0183926,-4.17e-06)
v1: Removing PWL point (0.0183958,-4.16e-06)
v1: Removing PWL point (0.018399,-4.15e-06)
v1: Removing PWL point (0.0184019,-4.14e-06)
v1: Removing PWL point (0.0184051,-4.13e-06)
v1: Removing PWL point (0.0184086,-4.12e-06)
v1: Removing PWL point (0.0184115,-4.11e-06)
v1: Removing PWL point (0.0184147,-4.1e-06)
v1: Removing PWL point (0.0184179,-4.09e-06)
v1: Removing PWL point (0.0184214,-4.08e-06)
v1: Removing PWL point (0.0184246,-4.07e-06)
v1: Removing PWL point (0.0184278,-4.06e-06)
v1: Removing PWL point (0.0184314,-4.05e-06)
v1: Removing PWL point (0.0184349,-4.04e-06)
v1: Removing PWL point (0.018439,-4.03e-06)
v1: Removing PWL point (0.0184426,-4.02e-06)
v1: Removing PWL point (0.0184467,-4.01e-06)
v1: Removing PWL point (0.0184506,-4e-06)
v1: Removing PWL point (0.0184538,-3.99e-06)
v1: Removing PWL point (0.018457,-3.98e-06)
v1: Removing PWL point (0.0184608,-3.97e-06)
v1: Removing PWL point (0.018465,-3.96e-06)
v1: Removing PWL point (0.0184688,-3.95e-06)
v1: Removing PWL point (0.0184723,-3.94e-06)
v1: Removing PWL point (0.0184758,-3.93e-06)
v1: Removing PWL point (0.0184794,-3.92e-06)
v1: Removing PWL point (0.0184822,-3.91e-06)
v1: Removing PWL point (0.0184851,-3.9e-06)
v1: Removing PWL point (0.0184883,-3.89e-06)
v1: Removing PWL point (0.0184915,-3.88e-06)
v1: Removing PWL point (0.0184947,-3.87e-06)
v1: Removing PWL point (0.0184979,-3.86e-06)
v1: Removing PWL point (0.0185011,-3.85e-06)
v1: Removing PWL point (0.0185043,-3.84e-06)
v1: Removing PWL point (0.0185078,-3.83e-06)
v1: Removing PWL point (0.0185107,-3.82e-06)
v1: Removing PWL point (0.0185136,-3.81e-06)
v1: Removing PWL point (0.0185168,-3.8e-06)
v1: Removing PWL point (0.0185206,-3.79e-06)
v1: Removing PWL point (0.0185248,-3.78e-06)
v1: Removing PWL point (0.0185283,-3.77e-06)
v1: Removing PWL point (0.0185318,-3.76e-06)
v1: Removing PWL point (0.0185354,-3.75e-06)
v1: Removing PWL point (0.0185392,-3.74e-06)
v1: Removing PWL point (0.0185434,-3.73e-06)
v1: Removing PWL point (0.0185475,-3.72e-06)
v1: Removing PWL point (0.0185501,-3.71e-06)
v1: Removing PWL point (0.018553,-3.7e-06)
v1: Removing PWL point (0.0185565,-3.69e-06)
v1: Removing PWL point (0.0185597,-3.68e-06)
v1: Removing PWL point (0.0185629,-3.67e-06)
v1: Removing PWL point (0.0185664,-3.66e-06)
v1: Removing PWL point (0.0185696,-3.65e-06)
v1: Removing PWL point (0.0185731,-3.64e-06)
v1: Removing PWL point (0.0185766,-3.63e-06)
v1: Removing PWL point (0.0185802,-3.62e-06)
v1: Removing PWL point (0.0185837,-3.61e-06)
v1: Removing PWL point (0.0185875,-3.6e-06)
v1: Removing PWL point (0.018591,-3.59e-06)
v1: Removing PWL point (0.0185946,-3.58e-06)
v1: Removing PWL point (0.0185981,-3.57e-06)
v1: Removing PWL point (0.0186019,-3.56e-06)
v1: Removing PWL point (0.0186051,-3.55e-06)
v1: Removing PWL point (0.0186083,-3.54e-06)
v1: Removing PWL point (0.0186115,-3.53e-06)
v1: Removing PWL point (0.0186154,-3.52e-06)
v1: Removing PWL point (0.0186192,-3.51e-06)
v1: Removing PWL point (0.0186224,-3.5e-06)
v1: Removing PWL point (0.0186259,-3.49e-06)
v1: Removing PWL point (0.0186298,-3.48e-06)
v1: Removing PWL point (0.0186339,-3.47e-06)
v1: Removing PWL point (0.0186374,-3.46e-06)
v1: Removing PWL point (0.0186406,-3.45e-06)
v1: Removing PWL point (0.0186442,-3.44e-06)
v1: Removing PWL point (0.018648,-3.43e-06)
v1: Removing PWL point (0.0186522,-3.42e-06)
v1: Removing PWL point (0.0186563,-3.41e-06)
v1: Removing PWL point (0.0186598,-3.4e-06)
v1: Removing PWL point (0.018665,-3.39e-06)
v1: Removing PWL point (0.0186688,-3.38e-06)
v1: Removing PWL point (0.0186723,-3.37e-06)
v1: Removing PWL point (0.0186768,-3.36e-06)
v1: Removing PWL point (0.0186803,-3.35e-06)
v1: Removing PWL point (0.0186842,-3.34e-06)
v1: Removing PWL point (0.0186899,-3.33e-06)
v1: Removing PWL point (0.0186938,-3.32e-06)
v1: Removing PWL point (0.0186973,-3.31e-06)
v1: Removing PWL point (0.0187018,-3.3e-06)
v1: Removing PWL point (0.0187062,-3.29e-06)
v1: Removing PWL point (0.0187091,-3.28e-06)
v1: Removing PWL point (0.018712,-3.27e-06)
v1: Removing PWL point (0.0187155,-3.26e-06)
v1: Removing PWL point (0.01872,-3.25e-06)
v1: Removing PWL point (0.0187232,-3.24e-06)
v1: Removing PWL point (0.0187267,-3.23e-06)
v1: Removing PWL point (0.0187306,-3.22e-06)
v1: Removing PWL point (0.0187341,-3.21e-06)
v1: Removing PWL point (0.0187376,-3.2e-06)
v1: Removing PWL point (0.0187414,-3.19e-06)
v1: Removing PWL point (0.0187469,-3.18e-06)
v1: Removing PWL point (0.0187504,-3.17e-06)
v1: Removing PWL point (0.0187539,-3.16e-06)
v1: Removing PWL point (0.0187574,-3.15e-06)
v1: Removing PWL point (0.0187603,-3.14e-06)
v1: Removing PWL point (0.0187635,-3.13e-06)
v1: Removing PWL point (0.018767,-3.12e-06)
v1: Removing PWL point (0.0187702,-3.11e-06)
v1: Removing PWL point (0.0187734,-3.1e-06)
v1: Removing PWL point (0.0187773,-3.09e-06)
v1: Removing PWL point (0.0187808,-3.08e-06)
v1: Removing PWL point (0.0187843,-3.07e-06)
v1: Removing PWL point (0.0187888,-3.06e-06)
v1: Removing PWL point (0.018793,-3.05e-06)
v1: Removing PWL point (0.0187971,-3.04e-06)
v1: Removing PWL point (0.0188013,-3.03e-06)
v1: Removing PWL point (0.0188051,-3.02e-06)
v1: Removing PWL point (0.018809,-3.01e-06)
v1: Removing PWL point (0.0188131,-3e-06)
v1: Removing PWL point (0.0188173,-2.99e-06)
v1: Removing PWL point (0.0188211,-2.98e-06)
v1: Removing PWL point (0.0188246,-2.97e-06)
v1: Removing PWL point (0.0188288,-2.96e-06)
v1: Removing PWL point (0.018832,-2.95e-06)
v1: Removing PWL point (0.0188352,-2.94e-06)
v1: Removing PWL point (0.018839,-2.93e-06)
v1: Removing PWL point (0.0188422,-2.92e-06)
v1: Removing PWL point (0.0188461,-2.91e-06)
v1: Removing PWL point (0.0188509,-2.9e-06)
v1: Removing PWL point (0.018855,-2.89e-06)
v1: Removing PWL point (0.0188586,-2.88e-06)
v1: Removing PWL point (0.0188618,-2.87e-06)
v1: Removing PWL point (0.018865,-2.86e-06)
v1: Removing PWL point (0.0188688,-2.85e-06)
v1: Removing PWL point (0.018873,-2.84e-06)
v1: Removing PWL point (0.0188768,-2.83e-06)
v1: Removing PWL point (0.0188806,-2.82e-06)
v1: Removing PWL point (0.0188845,-2.81e-06)
v1: Removing PWL point (0.0188883,-2.8e-06)
v1: Removing PWL point (0.0188918,-2.79e-06)
v1: Removing PWL point (0.0188947,-2.78e-06)
v1: Removing PWL point (0.0188986,-2.77e-06)
v1: Removing PWL point (0.0189021,-2.76e-06)
v1: Removing PWL point (0.0189062,-2.75e-06)
v1: Removing PWL point (0.0189098,-2.74e-06)
v1: Removing PWL point (0.0189126,-2.73e-06)
v1: Removing PWL point (0.0189165,-2.72e-06)
v1: Removing PWL point (0.0189206,-2.71e-06)
v1: Removing PWL point (0.0189242,-2.7e-06)
v1: Removing PWL point (0.0189277,-2.69e-06)
v1: Removing PWL point (0.0189309,-2.68e-06)
v1: Removing PWL point (0.0189344,-2.67e-06)
v1: Removing PWL point (0.0189376,-2.66e-06)
v1: Removing PWL point (0.0189411,-2.65e-06)
v1: Removing PWL point (0.0189443,-2.64e-06)
v1: Removing PWL point (0.0189475,-2.63e-06)
v1: Removing PWL point (0.0189507,-2.62e-06)
v1: Removing PWL point (0.0189549,-2.61e-06)
v1: Removing PWL point (0.0189587,-2.6e-06)
v1: Removing PWL point (0.0189622,-2.59e-06)
v1: Removing PWL point (0.0189654,-2.58e-06)
v1: Removing PWL point (0.018969,-2.57e-06)
v1: Removing PWL point (0.0189722,-2.56e-06)
v1: Removing PWL point (0.018975,-2.55e-06)
v1: Removing PWL point (0.0189779,-2.54e-06)
v1: Removing PWL point (0.0189811,-2.53e-06)
v1: Removing PWL point (0.0189846,-2.52e-06)
v1: Removing PWL point (0.0189878,-2.51e-06)
v1: Removing PWL point (0.018993,-2.5e-06)
v1: Removing PWL point (0.0189984,-2.49e-06)
v1: Removing PWL point (0.0190022,-2.48e-06)
v1: Removing PWL point (0.0190051,-2.47e-06)
v1: Removing PWL point (0.0190083,-2.46e-06)
v1: Removing PWL point (0.0190118,-2.45e-06)
v1: Removing PWL point (0.019016,-2.44e-06)
v1: Removing PWL point (0.0190198,-2.43e-06)
v1: Removing PWL point (0.019023,-2.42e-06)
v1: Removing PWL point (0.0190266,-2.41e-06)
v1: Removing PWL point (0.0190294,-2.4e-06)
v1: Removing PWL point (0.0190333,-2.39e-06)
v1: Removing PWL point (0.0190365,-2.38e-06)
v1: Removing PWL point (0.01904,-2.37e-06)
v1: Removing PWL point (0.0190432,-2.36e-06)
v1: Removing PWL point (0.019047,-2.35e-06)
v1: Removing PWL point (0.0190506,-2.34e-06)
v1: Removing PWL point (0.0190538,-2.33e-06)
v1: Removing PWL point (0.0190576,-2.32e-06)
v1: Removing PWL point (0.0190627,-2.31e-06)
v1: Removing PWL point (0.0190675,-2.3e-06)
v1: Removing PWL point (0.0190714,-2.29e-06)
v1: Removing PWL point (0.0190746,-2.28e-06)
v1: Removing PWL point (0.0190778,-2.27e-06)
v1: Removing PWL point (0.0190813,-2.26e-06)
v1: Removing PWL point (0.0190851,-2.25e-06)
v1: Removing PWL point (0.019088,-2.24e-06)
v1: Removing PWL point (0.0190912,-2.23e-06)
v1: Removing PWL point (0.0190957,-2.22e-06)
v1: Removing PWL point (0.0191005,-2.21e-06)
v1: Removing PWL point (0.0191046,-2.2e-06)
v1: Removing PWL point (0.0191085,-2.19e-06)
v1: Removing PWL point (0.019112,-2.18e-06)
v1: Removing PWL point (0.0191152,-2.17e-06)
v1: Removing PWL point (0.0191184,-2.16e-06)
v1: Removing PWL point (0.0191216,-2.15e-06)
v1: Removing PWL point (0.0191258,-2.14e-06)
v1: Removing PWL point (0.0191302,-2.13e-06)
v1: Removing PWL point (0.0191341,-2.12e-06)
v1: Removing PWL point (0.0191382,-2.11e-06)
v1: Removing PWL point (0.0191427,-2.1e-06)
v1: Removing PWL point (0.0191466,-2.09e-06)
v1: Removing PWL point (0.0191507,-2.08e-06)
v1: Removing PWL point (0.0191552,-2.07e-06)
v1: Removing PWL point (0.0191587,-2.06e-06)
v1: Removing PWL point (0.0191619,-2.05e-06)
v1: Removing PWL point (0.0191648,-2.04e-06)
v1: Removing PWL point (0.019169,-2.03e-06)
v1: Removing PWL point (0.0191728,-2.02e-06)
v1: Removing PWL point (0.019176,-2.01e-06)
v1: Removing PWL point (0.0191792,-2e-06)
v1: Removing PWL point (0.0191827,-1.99e-06)
v1: Removing PWL point (0.0191859,-1.98e-06)
v1: Removing PWL point (0.0191901,-1.97e-06)
v1: Removing PWL point (0.0191939,-1.96e-06)
v1: Removing PWL point (0.0191981,-1.95e-06)
v1: Removing PWL point (0.0192019,-1.94e-06)
v1: Removing PWL point (0.0192054,-1.93e-06)
v1: Removing PWL point (0.0192093,-1.92e-06)
v1: Removing PWL point (0.0192128,-1.91e-06)
v1: Removing PWL point (0.019217,-1.9e-06)
v1: Removing PWL point (0.0192205,-1.89e-06)
v1: Removing PWL point (0.0192237,-1.88e-06)
v1: Removing PWL point (0.0192275,-1.87e-06)
v1: Removing PWL point (0.0192317,-1.86e-06)
v1: Removing PWL point (0.0192352,-1.85e-06)
v1: Removing PWL point (0.0192381,-1.84e-06)
v1: Removing PWL point (0.0192419,-1.83e-06)
v1: Removing PWL point (0.0192464,-1.82e-06)
v1: Removing PWL point (0.0192509,-1.81e-06)
v1: Removing PWL point (0.0192547,-1.8e-06)
v1: Removing PWL point (0.0192598,-1.79e-06)
v1: Removing PWL point (0.0192637,-1.78e-06)
v1: Removing PWL point (0.0192672,-1.77e-06)
v1: Removing PWL point (0.019272,-1.76e-06)
v1: Removing PWL point (0.0192758,-1.75e-06)
v1: Removing PWL point (0.0192794,-1.74e-06)
v1: Removing PWL point (0.0192829,-1.73e-06)
v1: Removing PWL point (0.0192877,-1.72e-06)
v1: Removing PWL point (0.0192918,-1.71e-06)
v1: Removing PWL point (0.019296,-1.7e-06)
v1: Removing PWL point (0.0192998,-1.69e-06)
v1: Removing PWL point (0.0193034,-1.68e-06)
v1: Removing PWL point (0.0193072,-1.67e-06)
v1: Removing PWL point (0.0193117,-1.66e-06)
v1: Removing PWL point (0.0193146,-1.65e-06)
v1: Removing PWL point (0.0193178,-1.64e-06)
v1: Removing PWL point (0.0193216,-1.63e-06)
v1: Removing PWL point (0.0193251,-1.62e-06)
v1: Removing PWL point (0.019329,-1.61e-06)
v1: Removing PWL point (0.0193322,-1.6e-06)
v1: Removing PWL point (0.0193357,-1.59e-06)
v1: Removing PWL point (0.0193402,-1.58e-06)
v1: Removing PWL point (0.0193453,-1.57e-06)
v1: Removing PWL point (0.0193491,-1.56e-06)
v1: Removing PWL point (0.0193523,-1.55e-06)
v1: Removing PWL point (0.0193555,-1.54e-06)
v1: Removing PWL point (0.0193597,-1.53e-06)
v1: Removing PWL point (0.0193629,-1.52e-06)
v1: Removing PWL point (0.0193664,-1.51e-06)
v1: Removing PWL point (0.0193706,-1.5e-06)
v1: Removing PWL point (0.0193744,-1.49e-06)
v1: Removing PWL point (0.0193779,-1.48e-06)
v1: Removing PWL point (0.0193818,-1.47e-06)
v1: Removing PWL point (0.0193859,-1.46e-06)
v1: Removing PWL point (0.0193901,-1.45e-06)
v1: Removing PWL point (0.0193946,-1.44e-06)
v1: Removing PWL point (0.0193981,-1.43e-06)
v1: Removing PWL point (0.0194013,-1.42e-06)
v1: Removing PWL point (0.0194051,-1.41e-06)
v1: Removing PWL point (0.019409,-1.4e-06)
v1: Removing PWL point (0.0194125,-1.39e-06)
v1: Removing PWL point (0.019416,-1.38e-06)
v1: Removing PWL point (0.0194202,-1.37e-06)
v1: Removing PWL point (0.0194243,-1.36e-06)
v1: Removing PWL point (0.0194288,-1.35e-06)
v1: Removing PWL point (0.019432,-1.34e-06)
v1: Removing PWL point (0.0194365,-1.33e-06)
v1: Removing PWL point (0.0194397,-1.32e-06)
v1: Removing PWL point (0.0194429,-1.31e-06)
v1: Removing PWL point (0.0194477,-1.3e-06)
v1: Removing PWL point (0.0194518,-1.29e-06)
v1: Removing PWL point (0.0194566,-1.28e-06)
v1: Removing PWL point (0.0194611,-1.27e-06)
v1: Removing PWL point (0.019465,-1.26e-06)
v1: Removing PWL point (0.0194682,-1.25e-06)
v1: Removing PWL point (0.0194723,-1.24e-06)
v1: Removing PWL point (0.0194762,-1.23e-06)
v1: Removing PWL point (0.01948,-1.22e-06)
v1: Removing PWL point (0.0194842,-1.21e-06)
v1: Removing PWL point (0.0194883,-1.2e-06)
v1: Removing PWL point (0.0194925,-1.19e-06)
v1: Removing PWL point (0.019496,-1.18e-06)
v1: Removing PWL point (0.0194992,-1.17e-06)
v1: Removing PWL point (0.0195027,-1.16e-06)
v1: Removing PWL point (0.0195066,-1.15e-06)
v1: Removing PWL point (0.0195104,-1.14e-06)
v1: Removing PWL point (0.0195139,-1.13e-06)
v1: Removing PWL point (0.0195181,-1.12e-06)
v1: Removing PWL point (0.0195222,-1.11e-06)
v1: Removing PWL point (0.0195264,-1.1e-06)
v1: Removing PWL point (0.0195306,-1.09e-06)
v1: Removing PWL point (0.0195357,-1.08e-06)
v1: Removing PWL point (0.0195398,-1.07e-06)
v1: Removing PWL point (0.019544,-1.06e-06)
v1: Removing PWL point (0.0195482,-1.05e-06)
v1: Removing PWL point (0.0195514,-1.04e-06)
v1: Removing PWL point (0.0195549,-1.03e-06)
v1: Removing PWL point (0.0195587,-1.02e-06)
v1: Removing PWL point (0.0195629,-1.01e-06)
v1: Removing PWL point (0.0195667,-1e-06)
v1: Removing PWL point (0.0196294,-8.54e-07)
v1: Removing PWL point (0.019735,-6.11e-07)
v1: Removing PWL point (0.0199462,-1.33e-07)
v1: Removing PWL point (0.0199478,-1.31e-07)
Direct Newton iteration for .op point succeeded.
Total elapsed time: 2.420 seconds.

