LTspice 24.0.12 for Windows
Circuit: * C:\Drive\semester 7\BTP-1\work4_EL\finite_element_model\EL_model\sim1\solar_cell.asc
Start Time: Mon May 12 00:10:47 2025
solver = Normal
Maximum thread count: 8
tnom = 27
temp = 27
method = modified trap
WARNING: Less than two connections to node b6_100.  This node is used by rseries5_99.
WARNING: Less than two connections to node b6_0.  This node is used by rb_f5_0.
WARNING: Less than two connections to node b0_100.  This node is used by rb_b0_99.
.OP point found by inspection.
Total elapsed time: 0.335 seconds.

