LTspice 24.0.12 for Windows
Circuit: * C:\Drive\FE_SR\schmitt_trigger\sch_trig_sr.asc
Start Time: Tue May 20 19:16:24 2025
solver = Normal
Maximum thread count: 8
tnom = 27
temp = 27
method = modified trap
v3: Removing PWL point (1.00001e-05,5)
v3: Removing PWL point (0.00101001,-0.2)
v3: Removing PWL point (0.0510105,5)
v3: Removing PWL point (0.0520105,-0.2)
v3: Removing PWL point (0.102011,5)
v3: Removing PWL point (0.103011,-0.2)
v3: Removing PWL point (0.153011,5)
v3: Removing PWL point (0.154011,-0.2)
v3: Removing PWL point (0.204012,5)
v3: Removing PWL point (0.205012,-0.2)
v3: Removing PWL point (0.255013,5)
v3: Removing PWL point (0.256013,-0.2)
v3: Removing PWL point (0.306013,5)
v3: Removing PWL point (0.307013,-0.2)
v3: Removing PWL point (0.357014,5)
v3: Removing PWL point (0.358014,-0.2)
v3: Removing PWL point (0.408014,5)
v3: Removing PWL point (0.409014,-0.2)
v3: Removing PWL point (0.459015,5)
v3: Removing PWL point (0.460015,-0.2)
v3: Removing PWL point (0.510015,5)
v3: Removing PWL point (0.511015,-0.2)
v3: Removing PWL point (0.561016,5)
v3: Removing PWL point (0.562016,-0.2)
v3: Removing PWL point (0.612016,5)
v3: Removing PWL point (0.613016,-0.2)
v3: Removing PWL point (0.663017,5)
v3: Removing PWL point (0.664017,-0.2)
v3: Removing PWL point (0.714017,5)
v3: Removing PWL point (0.715017,-0.2)
v3: Removing PWL point (0.765018,5)
v3: Removing PWL point (0.766018,-0.2)
v3: Removing PWL point (0.816018,5)
v3: Removing PWL point (0.817018,-0.2)
v3: Removing PWL point (0.867019,5)
v3: Removing PWL point (0.868019,-0.2)
v3: Removing PWL point (0.918019,5)
v3: Removing PWL point (0.919019,-0.2)
v3: Removing PWL point (0.96902,5)
v3: Removing PWL point (0.97002,-0.2)
v4: Removing PWL point (1.00001e-05,-0.50878)
v4: Removing PWL point (0.000110001,-0.122063)
v4: Removing PWL point (0.000210002,0.504849)
v4: Removing PWL point (0.000310003,-0.0589677)
v4: Removing PWL point (0.000410004,0.455073)
v4: Removing PWL point (0.000510005,0.148294)
v4: Removing PWL point (0.000610006,-0.146327)
v4: Removing PWL point (0.000710007,0.259968)
v4: Removing PWL point (0.000810008,1.06738)
v4: Removing PWL point (0.000910009,0.421622)
v4: Removing PWL point (0.00101001,-0.698076)
v4: Removing PWL point (0.00111001,0.136717)
v4: Removing PWL point (0.00121001,-0.35196)
v4: Removing PWL point (0.00131001,0.129578)
v4: Removing PWL point (0.00141001,-0.296315)
v4: Removing PWL point (0.00151002,-0.206472)
v4: Removing PWL point (0.00161002,-0.101086)
v4: Removing PWL point (0.00171002,-0.467124)
v4: Removing PWL point (0.00181002,-0.191246)
v4: Removing PWL point (0.00191002,-0.015064)
v4: Removing PWL point (0.00201002,-0.0287535)
v4: Removing PWL point (0.00211002,0.270523)
v4: Removing PWL point (0.00221002,0.166599)
v4: Removing PWL point (0.00231002,0.301943)
v4: Removing PWL point (0.00241002,0.2292)
v4: Removing PWL point (0.00251003,0.148113)
v4: Removing PWL point (0.00261003,-0.385921)
v4: Removing PWL point (0.00271003,0.381707)
v4: Removing PWL point (0.00281003,-0.413194)
v4: Removing PWL point (0.00291003,-0.192184)
v4: Removing PWL point (0.00301003,-0.0565879)
v4: Removing PWL point (0.00311003,-0.308075)
v4: Removing PWL point (0.00321003,-0.0718097)
v4: Removing PWL point (0.00331003,0.238527)
v4: Removing PWL point (0.00341003,-0.0209612)
v4: Removing PWL point (0.00351004,-0.0307731)
v4: Removing PWL point (0.00361004,-0.492118)
v4: Removing PWL point (0.00371004,0.331809)
v4: Removing PWL point (0.00381004,-0.255914)
v4: Removing PWL point (0.00391004,-0.242207)
v4: Removing PWL point (0.00401004,-0.164735)
v4: Removing PWL point (0.00411004,-0.107097)
v4: Removing PWL point (0.00421004,0.450458)
v4: Removing PWL point (0.00431004,-0.575211)
v4: Removing PWL point (0.00441004,-0.227789)
v4: Removing PWL point (0.00451004,-0.26604)
v4: Removing PWL point (0.00461005,0.152703)
v4: Removing PWL point (0.00471005,-0.316186)
v4: Removing PWL point (0.00481005,-0.0710215)
v4: Removing PWL point (0.00491005,-0.808295)
v4: Removing PWL point (0.00501005,0.770635)
v4: Removing PWL point (0.00511005,-0.32353)
v4: Removing PWL point (0.00521005,0.414654)
v4: Removing PWL point (0.00531005,0.142113)
v4: Removing PWL point (0.00541005,0.555993)
v4: Removing PWL point (0.00551006,-0.127143)
v4: Removing PWL point (0.00561006,0.220518)
v4: Removing PWL point (0.00571006,-0.646618)
v4: Removing PWL point (0.00581006,0.0655655)
v4: Removing PWL point (0.00591006,0.374297)
v4: Removing PWL point (0.00601006,-0.170421)
v4: Removing PWL point (0.00611006,0.0317619)
v4: Removing PWL point (0.00621006,0.486673)
v4: Removing PWL point (0.00631006,0.458461)
v4: Removing PWL point (0.00641006,-0.336952)
v4: Removing PWL point (0.00651007,-0.502474)
v4: Removing PWL point (0.00661007,-0.0668722)
v4: Removing PWL point (0.00671007,-0.174321)
v4: Removing PWL point (0.00681007,0.127789)
v4: Removing PWL point (0.00691007,-0.27329)
v4: Removing PWL point (0.00701007,0.46398)
v4: Removing PWL point (0.00711007,-0.0776809)
v4: Removing PWL point (0.00721007,0.180787)
v4: Removing PWL point (0.00731007,0.261298)
v4: Removing PWL point (0.00741007,-0.0324589)
v4: Removing PWL point (0.00751008,-0.252053)
v4: Removing PWL point (0.00761008,0.160044)
v4: Removing PWL point (0.00771008,-0.570976)
v4: Removing PWL point (0.00781008,0.284882)
v4: Removing PWL point (0.00791008,0.0724419)
v4: Removing PWL point (0.00801008,-0.22673)
v4: Removing PWL point (0.00811008,-0.0220602)
v4: Removing PWL point (0.00821008,0.161082)
v4: Removing PWL point (0.00831008,-0.321386)
v4: Removing PWL point (0.00841008,0.643489)
v4: Removing PWL point (0.00851009,0.288921)
v4: Removing PWL point (0.00861009,0.0998876)
v4: Removing PWL point (0.00871009,-0.627872)
v4: Removing PWL point (0.00881009,-0.33586)
v4: Removing PWL point (0.00891009,-0.16677)
v4: Removing PWL point (0.00901009,0.156936)
v4: Removing PWL point (0.00911009,-0.330463)
v4: Removing PWL point (0.00921009,0.364238)
v4: Removing PWL point (0.00931009,-1.04013)
v4: Removing PWL point (0.00941009,-0.646248)
v4: Removing PWL point (0.0095101,-0.849509)
v4: Removing PWL point (0.0096101,-0.219763)
v4: Removing PWL point (0.0097101,-0.40136)
v4: Removing PWL point (0.0098101,-0.249577)
v4: Removing PWL point (0.0099101,0.397876)
v4: Removing PWL point (0.0100101,-0.049104)
v4: Removing PWL point (0.0101101,-0.751906)
v4: Removing PWL point (0.0102101,-0.360716)
v4: Removing PWL point (0.0103101,-0.755217)
v4: Removing PWL point (0.0104101,0.0938675)
v4: Removing PWL point (0.0105101,0.821024)
v4: Removing PWL point (0.0106101,-0.414622)
v4: Removing PWL point (0.0107101,0.10534)
v4: Removing PWL point (0.0108101,0.260954)
v4: Removing PWL point (0.0109101,-0.314271)
v4: Removing PWL point (0.0110101,-0.520447)
v4: Removing PWL point (0.0111101,-0.279768)
v4: Removing PWL point (0.0112101,-0.133733)
v4: Removing PWL point (0.0113101,0.446331)
v4: Removing PWL point (0.0114101,0.00809319)
v4: Removing PWL point (0.0115101,0.139937)
v4: Removing PWL point (0.0116101,0.00162738)
v4: Removing PWL point (0.0117101,0.561982)
v4: Removing PWL point (0.0118101,0.38332)
v4: Removing PWL point (0.0119101,-0.517955)
v4: Removing PWL point (0.0120101,-0.282602)
v4: Removing PWL point (0.0121101,0.617846)
v4: Removing PWL point (0.0122101,-0.433379)
v4: Removing PWL point (0.0123101,0.25013)
v4: Removing PWL point (0.0124101,0.300286)
v4: Removing PWL point (0.0125101,-0.251291)
v4: Removing PWL point (0.0126101,0.177735)
v4: Removing PWL point (0.0127101,0.523319)
v4: Removing PWL point (0.0128101,0.166961)
v4: Removing PWL point (0.0129101,0.0573869)
v4: Removing PWL point (0.0130101,0.280492)
v4: Removing PWL point (0.0131101,0.421486)
v4: Removing PWL point (0.0132101,0.345722)
v4: Removing PWL point (0.0133101,0.0769161)
v4: Removing PWL point (0.0134101,0.127975)
v4: Removing PWL point (0.0135101,-0.204167)
v4: Removing PWL point (0.0136101,-0.197954)
v4: Removing PWL point (0.0137101,-0.358401)
v4: Removing PWL point (0.0138101,-0.130613)
v4: Removing PWL point (0.0139101,-0.231686)
v4: Removing PWL point (0.0140101,-0.463954)
v4: Removing PWL point (0.0141101,-0.0488476)
v4: Removing PWL point (0.0142101,-0.148026)
v4: Removing PWL point (0.0143101,0.341799)
v4: Removing PWL point (0.0144101,-0.65175)
v4: Removing PWL point (0.0145101,-0.0473801)
v4: Removing PWL point (0.0146102,0.51135)
v4: Removing PWL point (0.0147101,-0.128358)
v4: Removing PWL point (0.0148102,-0.586546)
v4: Removing PWL point (0.0149102,-0.131104)
v4: Removing PWL point (0.0150101,0.327114)
v4: Removing PWL point (0.0151102,-0.222858)
v4: Removing PWL point (0.0152102,-0.662221)
v4: Removing PWL point (0.0153101,0.304962)
v4: Removing PWL point (0.0154102,0.587778)
v4: Removing PWL point (0.0155102,-0.174799)
v4: Removing PWL point (0.0156102,-0.472113)
v4: Removing PWL point (0.0157102,-0.335055)
v4: Removing PWL point (0.0158102,0.493176)
v4: Removing PWL point (0.0159102,-0.0306744)
v4: Removing PWL point (0.0160102,-0.0128246)
v4: Removing PWL point (0.0161102,0.186088)
v4: Removing PWL point (0.0162102,0.139537)
v4: Removing PWL point (0.0163102,0.181068)
v4: Removing PWL point (0.0164102,0.0697089)
v4: Removing PWL point (0.0165102,0.143518)
v4: Removing PWL point (0.0166102,-0.260139)
v4: Removing PWL point (0.0167102,0.0377785)
v4: Removing PWL point (0.0168102,-0.4739)
v4: Removing PWL point (0.0169102,-0.203555)
v4: Removing PWL point (0.0170102,-0.284407)
v4: Removing PWL point (0.0171102,0.690104)
v4: Removing PWL point (0.0172102,0.186586)
v4: Removing PWL point (0.0173102,0.159874)
v4: Removing PWL point (0.0174102,0.339315)
v4: Removing PWL point (0.0175102,0.364012)
v4: Removing PWL point (0.0176102,0.000433119)
v4: Removing PWL point (0.0177102,0.570344)
v4: Removing PWL point (0.0178102,0.874698)
v4: Removing PWL point (0.0179102,-0.30727)
v4: Removing PWL point (0.0180102,-0.264629)
v4: Removing PWL point (0.0181102,0.1061)
v4: Removing PWL point (0.0182102,-0.227041)
v4: Removing PWL point (0.0183102,0.273794)
v4: Removing PWL point (0.0184102,0.0353957)
v4: Removing PWL point (0.0185102,0.0774286)
v4: Removing PWL point (0.0186102,-0.0509877)
v4: Removing PWL point (0.0187102,0.268112)
v4: Removing PWL point (0.0188102,0.182909)
v4: Removing PWL point (0.0189102,0.49968)
v4: Removing PWL point (0.0190102,0.0820164)
v4: Removing PWL point (0.0191102,0.601951)
v4: Removing PWL point (0.0192102,-0.0823044)
v4: Removing PWL point (0.0193102,0.149961)
v4: Removing PWL point (0.0194102,-0.277755)
v4: Removing PWL point (0.0195102,-0.428938)
v4: Removing PWL point (0.0196102,-0.0829821)
v4: Removing PWL point (0.0197102,-0.0958936)
v4: Removing PWL point (0.0198102,-0.484936)
v4: Removing PWL point (0.0199102,-0.322175)
v4: Removing PWL point (0.0200102,0.160281)
v4: Removing PWL point (0.0201102,-0.174426)
v4: Removing PWL point (0.0202102,0.125801)
v4: Removing PWL point (0.0203102,-0.258879)
v4: Removing PWL point (0.0204102,-0.173619)
v4: Removing PWL point (0.0205102,0.600645)
v4: Removing PWL point (0.0206102,-0.32327)
v4: Removing PWL point (0.0207102,-0.813041)
v4: Removing PWL point (0.0208102,-0.465193)
v4: Removing PWL point (0.0209102,-0.491979)
v4: Removing PWL point (0.0210102,-0.162979)
v4: Removing PWL point (0.0211102,0.168823)
v4: Removing PWL point (0.0212102,-0.393843)
v4: Removing PWL point (0.0213102,0.514864)
v4: Removing PWL point (0.0214102,0.0636878)
v4: Removing PWL point (0.0215102,0.0445755)
v4: Removing PWL point (0.0216102,0.182445)
v4: Removing PWL point (0.0217102,-0.328784)
v4: Removing PWL point (0.0218102,-0.372155)
v4: Removing PWL point (0.0219102,1.15773)
v4: Removing PWL point (0.0220102,0.384691)
v4: Removing PWL point (0.0221102,-0.0725893)
v4: Removing PWL point (0.0222102,-0.150305)
v4: Removing PWL point (0.0223102,-0.135879)
v4: Removing PWL point (0.0224102,0.163031)
v4: Removing PWL point (0.0225102,-0.589058)
v4: Removing PWL point (0.0226102,0.17689)
v4: Removing PWL point (0.0227102,0.600253)
v4: Removing PWL point (0.0228102,-0.0615774)
v4: Removing PWL point (0.0229102,-0.602934)
v4: Removing PWL point (0.0230102,0.443335)
v4: Removing PWL point (0.0231102,-0.559423)
v4: Removing PWL point (0.0232102,0.303388)
v4: Removing PWL point (0.0233102,0.500895)
v4: Removing PWL point (0.0234102,-0.251611)
v4: Removing PWL point (0.0235102,-0.536623)
v4: Removing PWL point (0.0236102,-0.0124767)
v4: Removing PWL point (0.0237102,-0.314821)
v4: Removing PWL point (0.0238102,0.241137)
v4: Removing PWL point (0.0239102,-0.46285)
v4: Removing PWL point (0.0240102,0.08905)
v4: Removing PWL point (0.0241102,-0.187338)
v4: Removing PWL point (0.0242102,0.0315088)
v4: Removing PWL point (0.0243102,0.0806091)
v4: Removing PWL point (0.0244102,0.354575)
v4: Removing PWL point (0.0245103,-0.045745)
v4: Removing PWL point (0.0246103,-0.332921)
v4: Removing PWL point (0.0247102,0.367975)
v4: Removing PWL point (0.0248102,-0.0668371)
v4: Removing PWL point (0.0249103,-0.430092)
v4: Removing PWL point (0.0250103,0.0396437)
v4: Removing PWL point (0.0251103,0.5361)
v4: Removing PWL point (0.0252103,-0.19268)
v4: Removing PWL point (0.0253102,-0.122734)
v4: Removing PWL point (0.0254102,-0.19079)
v4: Removing PWL point (0.0255103,0.152066)
v4: Removing PWL point (0.0256103,-0.0579116)
v4: Removing PWL point (0.0257103,-0.406422)
v4: Removing PWL point (0.0258103,0.136932)
v4: Removing PWL point (0.0259103,-0.272806)
v4: Removing PWL point (0.0260103,-0.46427)
v4: Removing PWL point (0.0261103,-0.695955)
v4: Removing PWL point (0.0262103,-0.182646)
v4: Removing PWL point (0.0263103,-0.465162)
v4: Removing PWL point (0.0264103,-0.272034)
v4: Removing PWL point (0.0265103,-0.00830242)
v4: Removing PWL point (0.0266103,0.276889)
v4: Removing PWL point (0.0267103,0.259224)
v4: Removing PWL point (0.0268103,-0.272003)
v4: Removing PWL point (0.0269103,0.226388)
v4: Removing PWL point (0.0270103,-0.114961)
v4: Removing PWL point (0.0271103,-0.136457)
v4: Removing PWL point (0.0272103,-0.665621)
v4: Removing PWL point (0.0273103,-0.204727)
v4: Removing PWL point (0.0274103,0.440659)
v4: Removing PWL point (0.0275103,0.333381)
v4: Removing PWL point (0.0276103,-0.0583229)
v4: Removing PWL point (0.0277103,-0.0531333)
v4: Removing PWL point (0.0278103,-0.0745093)
v4: Removing PWL point (0.0279103,0.0939612)
v4: Removing PWL point (0.0280103,0.621493)
v4: Removing PWL point (0.0281103,-0.17868)
v4: Removing PWL point (0.0282103,-0.00199363)
v4: Removing PWL point (0.0283103,-0.0267938)
v4: Removing PWL point (0.0284103,-0.0176875)
v4: Removing PWL point (0.0285103,-0.353187)
v4: Removing PWL point (0.0286103,0.129123)
v4: Removing PWL point (0.0287103,0.522458)
v4: Removing PWL point (0.0288103,0.492612)
v4: Removing PWL point (0.0289103,-0.21961)
v4: Removing PWL point (0.0290103,0.330386)
v4: Removing PWL point (0.0291103,-0.199305)
v4: Removing PWL point (0.0292103,0.381095)
v4: Removing PWL point (0.0293103,-0.472002)
v4: Removing PWL point (0.0294103,-0.327349)
v4: Removing PWL point (0.0295103,-0.440942)
v4: Removing PWL point (0.0296103,-0.0533941)
v4: Removing PWL point (0.0297103,0.14818)
v4: Removing PWL point (0.0298103,-0.03503)
v4: Removing PWL point (0.0299103,-0.0711366)
v4: Removing PWL point (0.0300103,-0.075019)
v4: Removing PWL point (0.0301103,0.0103085)
v4: Removing PWL point (0.0302103,0.250883)
v4: Removing PWL point (0.0303103,0.103559)
v4: Removing PWL point (0.0304103,0.535441)
v4: Removing PWL point (0.0305103,-0.20784)
v4: Removing PWL point (0.0306103,-0.238791)
v4: Removing PWL point (0.0307103,-0.463293)
v4: Removing PWL point (0.0308103,0.285998)
v4: Removing PWL point (0.0309103,0.30307)
v4: Removing PWL point (0.0310103,-0.462621)
v4: Removing PWL point (0.0311103,0.27371)
v4: Removing PWL point (0.0312103,-0.0882698)
v4: Removing PWL point (0.0313103,0.125987)
v4: Removing PWL point (0.0314103,-0.459775)
v4: Removing PWL point (0.0315103,-0.157244)
v4: Removing PWL point (0.0316103,0.561313)
v4: Removing PWL point (0.0317103,-0.0550408)
v4: Removing PWL point (0.0318103,-0.727025)
v4: Removing PWL point (0.0319103,0.344614)
v4: Removing PWL point (0.0320103,-0.14709)
v4: Removing PWL point (0.0321103,-0.250966)
v4: Removing PWL point (0.0322103,-0.284221)
v4: Removing PWL point (0.0323103,0.508283)
v4: Removing PWL point (0.0324103,-0.357911)
v4: Removing PWL point (0.0325103,0.449012)
v4: Removing PWL point (0.0326103,-0.0338258)
v4: Removing PWL point (0.0327103,-0.197422)
v4: Removing PWL point (0.0328103,-0.522479)
v4: Removing PWL point (0.0329103,0.407294)
v4: Removing PWL point (0.0330103,-0.222412)
v4: Removing PWL point (0.0331103,-0.67668)
v4: Removing PWL point (0.0332103,0.0507396)
v4: Removing PWL point (0.0333103,0.219054)
v4: Removing PWL point (0.0334103,-0.154857)
v4: Removing PWL point (0.0335103,-0.318458)
v4: Removing PWL point (0.0336103,0.127942)
v4: Removing PWL point (0.0337103,0.0648824)
v4: Removing PWL point (0.0338103,0.307008)
v4: Removing PWL point (0.0339103,-0.14541)
v4: Removing PWL point (0.0340103,-0.230896)
v4: Removing PWL point (0.0341103,-0.0483582)
v4: Removing PWL point (0.0342103,0.0648517)
v4: Removing PWL point (0.0343103,-0.285572)
v4: Removing PWL point (0.0344103,-0.214231)
v4: Removing PWL point (0.0345104,-0.500252)
v4: Removing PWL point (0.0346103,-0.0541207)
v4: Removing PWL point (0.0347104,0.119649)
v4: Removing PWL point (0.0348104,-0.306374)
v4: Removing PWL point (0.0349103,0.172951)
v4: Removing PWL point (0.0350104,-0.287135)
v4: Removing PWL point (0.0351103,-0.429628)
v4: Removing PWL point (0.0352104,-0.250146)
v4: Removing PWL point (0.0353103,0.414003)
v4: Removing PWL point (0.0354104,0.257424)
v4: Removing PWL point (0.0355104,0.461811)
v4: Removing PWL point (0.0356104,0.594762)
v4: Removing PWL point (0.0357104,0.317275)
v4: Removing PWL point (0.0358104,0.188244)
v4: Removing PWL point (0.0359104,0.413398)
v4: Removing PWL point (0.0360104,0.315861)
v4: Removing PWL point (0.0361104,-0.250436)
v4: Removing PWL point (0.0362104,0.0525782)
v4: Removing PWL point (0.0363104,-0.731143)
v4: Removing PWL point (0.0364104,-0.585036)
v4: Removing PWL point (0.0365104,-0.275615)
v4: Removing PWL point (0.0366104,-0.155743)
v4: Removing PWL point (0.0367104,0.0866989)
v4: Removing PWL point (0.0368104,0.384663)
v4: Removing PWL point (0.0369104,0.0452182)
v4: Removing PWL point (0.0370104,-0.0783633)
v4: Removing PWL point (0.0371104,0.170048)
v4: Removing PWL point (0.0372104,-0.444579)
v4: Removing PWL point (0.0373104,-0.264308)
v4: Removing PWL point (0.0374104,-0.12338)
v4: Removing PWL point (0.0375104,-0.368756)
v4: Removing PWL point (0.0376104,-0.479832)
v4: Removing PWL point (0.0377104,-0.103561)
v4: Removing PWL point (0.0378104,0.164222)
v4: Removing PWL point (0.0379104,-0.123661)
v4: Removing PWL point (0.0380104,0.501718)
v4: Removing PWL point (0.0381104,-0.12508)
v4: Removing PWL point (0.0382104,-0.207506)
v4: Removing PWL point (0.0383104,-0.0498567)
v4: Removing PWL point (0.0384104,0.0217523)
v4: Removing PWL point (0.0385104,0.0702521)
v4: Removing PWL point (0.0386104,0.126826)
v4: Removing PWL point (0.0387104,0.0733743)
v4: Removing PWL point (0.0388104,0.0847921)
v4: Removing PWL point (0.0389104,-0.766653)
v4: Removing PWL point (0.0390104,0.261979)
v4: Removing PWL point (0.0391104,0.270849)
v4: Removing PWL point (0.0392104,0.38266)
v4: Removing PWL point (0.0393104,-0.0512491)
v4: Removing PWL point (0.0394104,0.354954)
v4: Removing PWL point (0.0395104,0.23867)
v4: Removing PWL point (0.0396104,0.0214348)
v4: Removing PWL point (0.0397104,-0.26477)
v4: Removing PWL point (0.0398104,-0.352895)
v4: Removing PWL point (0.0399104,-0.136191)
v4: Removing PWL point (0.0400104,0.0195203)
v4: Removing PWL point (0.0401104,-0.128016)
v4: Removing PWL point (0.0402104,-0.117973)
v4: Removing PWL point (0.0403104,0.196573)
v4: Removing PWL point (0.0404104,0.101427)
v4: Removing PWL point (0.0405104,0.120598)
v4: Removing PWL point (0.0406104,0.182917)
v4: Removing PWL point (0.0407104,-0.445787)
v4: Removing PWL point (0.0408104,0.642158)
v4: Removing PWL point (0.0409104,-0.334254)
v4: Removing PWL point (0.0410104,0.135707)
v4: Removing PWL point (0.0411104,0.0699923)
v4: Removing PWL point (0.0412104,-0.542488)
v4: Removing PWL point (0.0413104,0.101405)
v4: Removing PWL point (0.0414104,-0.626937)
v4: Removing PWL point (0.0415104,0.333196)
v4: Removing PWL point (0.0416104,0.160588)
v4: Removing PWL point (0.0417104,-0.202055)
v4: Removing PWL point (0.0418104,-0.650846)
v4: Removing PWL point (0.0419104,0.00559557)
v4: Removing PWL point (0.0420104,-0.266425)
v4: Removing PWL point (0.0421104,0.0200481)
v4: Removing PWL point (0.0422104,0.332139)
v4: Removing PWL point (0.0423104,0.726704)
v4: Removing PWL point (0.0424104,0.303137)
v4: Removing PWL point (0.0425104,-0.24398)
v4: Removing PWL point (0.0426104,-0.430534)
v4: Removing PWL point (0.0427104,-0.0202455)
v4: Removing PWL point (0.0428104,0.0098201)
v4: Removing PWL point (0.0429104,-0.358054)
v4: Removing PWL point (0.0430104,-0.457479)
v4: Removing PWL point (0.0431104,0.150886)
v4: Removing PWL point (0.0432104,0.334402)
v4: Removing PWL point (0.0433104,-0.200145)
v4: Removing PWL point (0.0434104,0.172025)
v4: Removing PWL point (0.0435104,0.665948)
v4: Removing PWL point (0.0436104,-0.116132)
v4: Removing PWL point (0.0437104,-0.0235888)
v4: Removing PWL point (0.0438104,-0.110042)
v4: Removing PWL point (0.0439104,-0.0689203)
v4: Removing PWL point (0.0440104,0.619337)
v4: Removing PWL point (0.0441104,0.0504332)
v4: Removing PWL point (0.0442104,0.12619)
v4: Removing PWL point (0.0443104,-0.191999)
v4: Removing PWL point (0.0444104,-1.15533)
v4: Removing PWL point (0.0445105,-0.27598)
v4: Removing PWL point (0.0446105,0.52179)
v4: Removing PWL point (0.0447104,0.292541)
v4: Removing PWL point (0.0448105,-0.125959)
v4: Removing PWL point (0.0449104,0.0948539)
v4: Removing PWL point (0.0450105,0.145155)
v4: Removing PWL point (0.0451105,-0.375574)
v4: Removing PWL point (0.0452104,0.00645665)
v4: Removing PWL point (0.0453105,-0.508686)
v4: Removing PWL point (0.0454104,-0.298579)
v4: Removing PWL point (0.0455105,-0.0578285)
v4: Removing PWL point (0.0456105,0.0932933)
v4: Removing PWL point (0.0457105,-0.31379)
v4: Removing PWL point (0.0458105,-0.376015)
v4: Removing PWL point (0.0459105,0.230933)
v4: Removing PWL point (0.0460105,-0.450797)
v4: Removing PWL point (0.0461105,-0.0917119)
v4: Removing PWL point (0.0462105,-0.0817522)
v4: Removing PWL point (0.0463105,-0.089224)
v4: Removing PWL point (0.0464105,0.53129)
v4: Removing PWL point (0.0465105,0.0227058)
v4: Removing PWL point (0.0466105,-0.194693)
v4: Removing PWL point (0.0467105,-0.0722721)
v4: Removing PWL point (0.0468105,0.0423567)
v4: Removing PWL point (0.0469105,0.198126)
v4: Removing PWL point (0.0470105,-0.0219)
v4: Removing PWL point (0.0471105,0.11147)
v4: Removing PWL point (0.0472105,-0.24767)
v4: Removing PWL point (0.0473105,0.305424)
v4: Removing PWL point (0.0474105,-0.34839)
v4: Removing PWL point (0.0475105,0.207566)
v4: Removing PWL point (0.0476105,0.320216)
v4: Removing PWL point (0.0477105,0.304619)
v4: Removing PWL point (0.0478105,0.114408)
v4: Removing PWL point (0.0479105,-0.717373)
v4: Removing PWL point (0.0480105,0.138127)
v4: Removing PWL point (0.0481105,0.179676)
v4: Removing PWL point (0.0482105,-0.171691)
v4: Removing PWL point (0.0483105,0.608042)
v4: Removing PWL point (0.0484105,-0.253211)
v4: Removing PWL point (0.0485105,0.00608011)
v4: Removing PWL point (0.0486105,0.525537)
v4: Removing PWL point (0.0487105,-0.0364853)
v4: Removing PWL point (0.0488105,-0.230233)
v4: Removing PWL point (0.0489105,0.483323)
v4: Removing PWL point (0.0490105,0.00139103)
v4: Removing PWL point (0.0491105,-0.172506)
v4: Removing PWL point (0.0492105,0.0560794)
v4: Removing PWL point (0.0493105,0.10165)
v4: Removing PWL point (0.0494105,0.304115)
v4: Removing PWL point (0.0495105,0.679886)
v4: Removing PWL point (0.0496105,0.370739)
v4: Removing PWL point (0.0497105,0.304924)
v4: Removing PWL point (0.0498105,-0.132236)
v4: Removing PWL point (0.0499105,0.296929)
v4: Removing PWL point (0.0500105,-0.509893)
v4: Removing PWL point (0.0501105,-0.506611)
v4: Removing PWL point (0.0502105,-0.158384)
v4: Removing PWL point (0.0503105,-0.619356)
v4: Removing PWL point (0.0504105,0.15167)
v4: Removing PWL point (0.0505105,-0.0377056)
v4: Removing PWL point (0.0506105,-0.199145)
v4: Removing PWL point (0.0507105,0.183596)
v4: Removing PWL point (0.0508105,-0.471128)
v4: Removing PWL point (0.0509105,0.267589)
v4: Removing PWL point (0.0510105,0.44785)
v4: Removing PWL point (0.0511105,0.00193409)
v4: Removing PWL point (0.0512105,0.0891494)
v4: Removing PWL point (0.0513105,-0.151701)
v4: Removing PWL point (0.0514105,-0.042805)
v4: Removing PWL point (0.0515105,-0.0867357)
v4: Removing PWL point (0.0516105,-0.468901)
v4: Removing PWL point (0.0517105,0.67625)
v4: Removing PWL point (0.0518105,-0.0870925)
v4: Removing PWL point (0.0519105,0.50859)
v4: Removing PWL point (0.0520105,0.191697)
v4: Removing PWL point (0.0521105,-0.334053)
v4: Removing PWL point (0.0522105,0.105743)
v4: Removing PWL point (0.0523105,-0.256776)
v4: Removing PWL point (0.0524105,-0.521716)
v4: Removing PWL point (0.0525105,-0.338351)
v4: Removing PWL point (0.0526105,0.512932)
v4: Removing PWL point (0.0527105,-0.615689)
v4: Removing PWL point (0.0528105,0.54503)
v4: Removing PWL point (0.0529105,-0.399695)
v4: Removing PWL point (0.0530105,0.572891)
v4: Removing PWL point (0.0531105,0.111556)
v4: Removing PWL point (0.0532105,0.101112)
v4: Removing PWL point (0.0533105,0.485461)
v4: Removing PWL point (0.0534105,0.116137)
v4: Removing PWL point (0.0535105,-0.243193)
v4: Removing PWL point (0.0536105,-0.34561)
v4: Removing PWL point (0.0537105,0.300844)
v4: Removing PWL point (0.0538105,0.16571)
v4: Removing PWL point (0.0539105,-0.625563)
v4: Removing PWL point (0.0540105,-0.0609177)
v4: Removing PWL point (0.0541105,0.04928)
v4: Removing PWL point (0.0542105,-0.725038)
v4: Removing PWL point (0.0543105,0.272218)
v4: Removing PWL point (0.0544105,-0.353662)
v4: Removing PWL point (0.0545105,0.187544)
v4: Removing PWL point (0.0546106,-0.00186394)
v4: Removing PWL point (0.0547106,0.441638)
v4: Removing PWL point (0.0548105,0.0261335)
v4: Removing PWL point (0.0549106,-0.0813937)
v4: Removing PWL point (0.0550105,0.0132481)
v4: Removing PWL point (0.0551106,-0.179895)
v4: Removing PWL point (0.0552106,0.36297)
v4: Removing PWL point (0.0553105,-0.828192)
v4: Removing PWL point (0.0554106,-0.250075)
v4: Removing PWL point (0.0555106,-0.13037)
v4: Removing PWL point (0.0556106,-0.200065)
v4: Removing PWL point (0.0557106,0.289039)
v4: Removing PWL point (0.0558106,-0.540087)
v4: Removing PWL point (0.0559106,-0.331335)
v4: Removing PWL point (0.0560106,0.0527611)
v4: Removing PWL point (0.0561106,0.166527)
v4: Removing PWL point (0.0562106,0.31261)
v4: Removing PWL point (0.0563106,0.385769)
v4: Removing PWL point (0.0564106,0.131258)
v4: Removing PWL point (0.0565106,-0.0812861)
v4: Removing PWL point (0.0566106,0.120212)
v4: Removing PWL point (0.0567106,0.114751)
v4: Removing PWL point (0.0568106,-0.28089)
v4: Removing PWL point (0.0569106,0.533729)
v4: Removing PWL point (0.0570106,-0.429899)
v4: Removing PWL point (0.0571106,0.130085)
v4: Removing PWL point (0.0572106,0.234386)
v4: Removing PWL point (0.0573106,-0.191159)
v4: Removing PWL point (0.0574106,-0.552606)
v4: Removing PWL point (0.0575106,0.64387)
v4: Removing PWL point (0.0576106,0.186399)
v4: Removing PWL point (0.0577106,-0.150459)
v4: Removing PWL point (0.0578106,-0.0228026)
v4: Removing PWL point (0.0579106,-0.0343948)
v4: Removing PWL point (0.0580106,0.303068)
v4: Removing PWL point (0.0581106,0.31466)
v4: Removing PWL point (0.0582106,-0.691719)
v4: Removing PWL point (0.0583106,-0.0475366)
v4: Removing PWL point (0.0584106,-0.165508)
v4: Removing PWL point (0.0585106,0.0170798)
v4: Removing PWL point (0.0586106,-0.0470797)
v4: Removing PWL point (0.0587106,-0.236472)
v4: Removing PWL point (0.0588106,0.252979)
v4: Removing PWL point (0.0589106,-0.0933975)
v4: Removing PWL point (0.0590106,-0.226963)
v4: Removing PWL point (0.0591106,-0.62335)
v4: Removing PWL point (0.0592106,0.0602158)
v4: Removing PWL point (0.0593106,-0.841309)
v4: Removing PWL point (0.0594106,0.0710294)
v4: Removing PWL point (0.0595106,0.381627)
v4: Removing PWL point (0.0596106,0.0586038)
v4: Removing PWL point (0.0597106,0.113871)
v4: Removing PWL point (0.0598106,0.219527)
v4: Removing PWL point (0.0599106,0.288318)
v4: Removing PWL point (0.0600106,0.297248)
v4: Removing PWL point (0.0601106,-0.124373)
v4: Removing PWL point (0.0602106,0.186339)
v4: Removing PWL point (0.0603106,-0.397868)
v4: Removing PWL point (0.0604106,-0.0881296)
v4: Removing PWL point (0.0605106,-0.315209)
v4: Removing PWL point (0.0606106,0.532143)
v4: Removing PWL point (0.0607106,0.168488)
v4: Removing PWL point (0.0608106,-0.0644746)
v4: Removing PWL point (0.0609106,-0.374429)
v4: Removing PWL point (0.0610106,0.124772)
v4: Removing PWL point (0.0611106,0.403014)
v4: Removing PWL point (0.0612106,-0.287771)
v4: Removing PWL point (0.0613106,0.637505)
v4: Removing PWL point (0.0614106,-0.102784)
v4: Removing PWL point (0.0615106,-0.472663)
v4: Removing PWL point (0.0616106,-0.0158309)
v4: Removing PWL point (0.0617106,-0.103855)
v4: Removing PWL point (0.0618106,0.18295)
v4: Removing PWL point (0.0619106,-0.549187)
v4: Removing PWL point (0.0620106,0.180779)
v4: Removing PWL point (0.0621106,0.181281)
v4: Removing PWL point (0.0622106,0.29387)
v4: Removing PWL point (0.0623106,-0.180682)
v4: Removing PWL point (0.0624106,-0.106184)
v4: Removing PWL point (0.0625106,0.650072)
v4: Removing PWL point (0.0626106,-0.281266)
v4: Removing PWL point (0.0627106,-0.0742578)
v4: Removing PWL point (0.0628106,0.0226)
v4: Removing PWL point (0.0629106,-0.432845)
v4: Removing PWL point (0.0630106,-0.101883)
v4: Removing PWL point (0.0631106,-0.184888)
v4: Removing PWL point (0.0632106,-0.0566701)
v4: Removing PWL point (0.0633106,-0.46395)
v4: Removing PWL point (0.0634106,0.225142)
v4: Removing PWL point (0.0635106,0.167924)
v4: Removing PWL point (0.0636106,0.1279)
v4: Removing PWL point (0.0637106,-0.119642)
v4: Removing PWL point (0.0638106,-0.215648)
v4: Removing PWL point (0.0639106,0.202947)
v4: Removing PWL point (0.0640106,0.517254)
v4: Removing PWL point (0.0641106,0.194549)
v4: Removing PWL point (0.0642106,0.0422819)
v4: Removing PWL point (0.0643106,0.213356)
v4: Removing PWL point (0.0644106,-0.154559)
v4: Removing PWL point (0.0645107,0.317359)
v4: Removing PWL point (0.0646107,-0.171004)
v4: Removing PWL point (0.0647106,-0.195913)
v4: Removing PWL point (0.0648106,-0.435203)
v4: Removing PWL point (0.0649107,0.0497798)
v4: Removing PWL point (0.0650107,-0.61348)
v4: Removing PWL point (0.0651107,-0.0265852)
v4: Removing PWL point (0.0652106,-0.337794)
v4: Removing PWL point (0.0653106,-0.81822)
v4: Removing PWL point (0.0654107,0.574975)
v4: Removing PWL point (0.0655107,0.670381)
v4: Removing PWL point (0.0656107,-0.164785)
v4: Removing PWL point (0.0657107,-0.58279)
v4: Removing PWL point (0.0658107,0.107242)
v4: Removing PWL point (0.0659107,0.6242)
v4: Removing PWL point (0.0660107,-0.0354469)
v4: Removing PWL point (0.0661107,0.0213061)
v4: Removing PWL point (0.0662107,0.556089)
v4: Removing PWL point (0.0663107,-0.0477731)
v4: Removing PWL point (0.0664107,0.134401)
v4: Removing PWL point (0.0665107,-0.0139174)
v4: Removing PWL point (0.0666107,0.876963)
v4: Removing PWL point (0.0667107,0.0859016)
v4: Removing PWL point (0.0668107,0.612703)
v4: Removing PWL point (0.0669107,-0.170343)
v4: Removing PWL point (0.0670107,0.721829)
v4: Removing PWL point (0.0671107,-0.0524635)
v4: Removing PWL point (0.0672107,0.694769)
v4: Removing PWL point (0.0673107,-0.659255)
v4: Removing PWL point (0.0674107,-0.331272)
v4: Removing PWL point (0.0675107,-0.828688)
v4: Removing PWL point (0.0676107,-0.46236)
v4: Removing PWL point (0.0677107,-0.6154)
v4: Removing PWL point (0.0678107,0.0527324)
v4: Removing PWL point (0.0679107,0.260257)
v4: Removing PWL point (0.0680107,-0.149246)
v4: Removing PWL point (0.0681107,0.0135642)
v4: Removing PWL point (0.0682107,0.577911)
v4: Removing PWL point (0.0683107,-0.165526)
v4: Removing PWL point (0.0684107,-0.099259)
v4: Removing PWL point (0.0685107,-0.467703)
v4: Removing PWL point (0.0686107,0.0927455)
v4: Removing PWL point (0.0687107,-0.152938)
v4: Removing PWL point (0.0688107,-0.0487698)
v4: Removing PWL point (0.0689107,-0.0881721)
v4: Removing PWL point (0.0690107,0.133465)
v4: Removing PWL point (0.0691107,0.0862596)
v4: Removing PWL point (0.0692107,-0.127135)
v4: Removing PWL point (0.0693107,0.0401108)
v4: Removing PWL point (0.0694107,0.721155)
v4: Removing PWL point (0.0695107,0.145302)
v4: Removing PWL point (0.0696107,0.127367)
v4: Removing PWL point (0.0697107,-0.631144)
v4: Removing PWL point (0.0698107,-0.416066)
v4: Removing PWL point (0.0699107,0.524232)
v4: Removing PWL point (0.0700107,0.274523)
v4: Removing PWL point (0.0701107,-0.0650745)
v4: Removing PWL point (0.0702107,0.102028)
v4: Removing PWL point (0.0703107,-0.0173201)
v4: Removing PWL point (0.0704107,0.0652255)
v4: Removing PWL point (0.0705107,0.148003)
v4: Removing PWL point (0.0706107,-0.165339)
v4: Removing PWL point (0.0707107,0.515341)
v4: Removing PWL point (0.0708107,-0.204969)
v4: Removing PWL point (0.0709107,-0.22118)
v4: Removing PWL point (0.0710107,0.228453)
v4: Removing PWL point (0.0711107,-0.0603136)
v4: Removing PWL point (0.0712107,0.321731)
v4: Removing PWL point (0.0713107,-0.411893)
v4: Removing PWL point (0.0714107,0.0645405)
v4: Removing PWL point (0.0715107,0.475995)
v4: Removing PWL point (0.0716107,0.156631)
v4: Removing PWL point (0.0717107,0.279602)
v4: Removing PWL point (0.0718107,0.394313)
v4: Removing PWL point (0.0719107,-0.255211)
v4: Removing PWL point (0.0720107,-0.141926)
v4: Removing PWL point (0.0721107,-0.121142)
v4: Removing PWL point (0.0722107,0.402477)
v4: Removing PWL point (0.0723107,0.228515)
v4: Removing PWL point (0.0724107,-0.392174)
v4: Removing PWL point (0.0725107,0.00368265)
v4: Removing PWL point (0.0726107,-0.500424)
v4: Removing PWL point (0.0727107,0.0837821)
v4: Removing PWL point (0.0728107,0.166261)
v4: Removing PWL point (0.0729107,-0.0914748)
v4: Removing PWL point (0.0730107,0.180407)
v4: Removing PWL point (0.0731107,-0.26003)
v4: Removing PWL point (0.0732107,0.32881)
v4: Removing PWL point (0.0733107,-0.718383)
v4: Removing PWL point (0.0734107,0.0160361)
v4: Removing PWL point (0.0735107,-0.37074)
v4: Removing PWL point (0.0736107,-0.223439)
v4: Removing PWL point (0.0737107,0.120283)
v4: Removing PWL point (0.0738107,-0.107815)
v4: Removing PWL point (0.0739107,-0.0426018)
v4: Removing PWL point (0.0740107,-0.429879)
v4: Removing PWL point (0.0741107,0.626732)
v4: Removing PWL point (0.0742107,0.0246507)
v4: Removing PWL point (0.0743107,0.179504)
v4: Removing PWL point (0.0744107,-0.0857041)
v4: Removing PWL point (0.0745108,-0.0811461)
v4: Removing PWL point (0.0746108,-0.2114)
v4: Removing PWL point (0.0747108,0.289743)
v4: Removing PWL point (0.0748107,0.0364129)
v4: Removing PWL point (0.0749107,-0.327937)
v4: Removing PWL point (0.0750108,0.234292)
v4: Removing PWL point (0.0751108,-0.0710602)
v4: Removing PWL point (0.0752108,-0.304033)
v4: Removing PWL point (0.0753107,-0.127248)
v4: Removing PWL point (0.0754107,-0.241031)
v4: Removing PWL point (0.0755108,-0.0359234)
v4: Removing PWL point (0.0756108,0.665267)
v4: Removing PWL point (0.0757108,0.393124)
v4: Removing PWL point (0.0758108,-0.38615)
v4: Removing PWL point (0.0759108,-0.0214254)
v4: Removing PWL point (0.0760108,0.0485311)
v4: Removing PWL point (0.0761108,0.201734)
v4: Removing PWL point (0.0762108,-0.0475517)
v4: Removing PWL point (0.0763108,0.757756)
v4: Removing PWL point (0.0764108,-0.241659)
v4: Removing PWL point (0.0765108,0.162519)
v4: Removing PWL point (0.0766108,0.517621)
v4: Removing PWL point (0.0767108,-0.130197)
v4: Removing PWL point (0.0768108,0.0525799)
v4: Removing PWL point (0.0769108,0.390064)
v4: Removing PWL point (0.0770108,0.199067)
v4: Removing PWL point (0.0771108,0.257357)
v4: Removing PWL point (0.0772108,0.561206)
v4: Removing PWL point (0.0773108,-0.356474)
v4: Removing PWL point (0.0774108,-0.233814)
v4: Removing PWL point (0.0775108,-0.211385)
v4: Removing PWL point (0.0776108,0.0652825)
v4: Removing PWL point (0.0777108,0.0233655)
v4: Removing PWL point (0.0778108,0.170179)
v4: Removing PWL point (0.0779108,0.289671)
v4: Removing PWL point (0.0780108,0.222328)
v4: Removing PWL point (0.0781108,-0.16788)
v4: Removing PWL point (0.0782108,0.109248)
v4: Removing PWL point (0.0783108,-0.347044)
v4: Removing PWL point (0.0784108,-0.0104286)
v4: Removing PWL point (0.0785108,0.357117)
v4: Removing PWL point (0.0786108,0.534343)
v4: Removing PWL point (0.0787108,0.217401)
v4: Removing PWL point (0.0788108,-0.508624)
v4: Removing PWL point (0.0789108,0.0800486)
v4: Removing PWL point (0.0790108,0.615113)
v4: Removing PWL point (0.0791108,-0.00839957)
v4: Removing PWL point (0.0792108,-0.248903)
v4: Removing PWL point (0.0793108,-0.0042318)
v4: Removing PWL point (0.0794108,-0.351681)
v4: Removing PWL point (0.0795108,0.0677429)
v4: Removing PWL point (0.0796108,0.643608)
v4: Removing PWL point (0.0797108,0.208469)
v4: Removing PWL point (0.0798108,-0.252736)
v4: Removing PWL point (0.0799108,-0.0843495)
v4: Removing PWL point (0.0800108,0.191075)
v4: Removing PWL point (0.0801108,-0.0864645)
v4: Removing PWL point (0.0802108,0.0339734)
v4: Removing PWL point (0.0803108,-0.5971)
v4: Removing PWL point (0.0804108,0.180243)
v4: Removing PWL point (0.0805108,0.507177)
v4: Removing PWL point (0.0806108,0.122492)
v4: Removing PWL point (0.0807108,0.0553326)
v4: Removing PWL point (0.0808108,0.282108)
v4: Removing PWL point (0.0809108,-0.186154)
v4: Removing PWL point (0.0810108,-0.428143)
v4: Removing PWL point (0.0811108,0.177388)
v4: Removing PWL point (0.0812108,-0.313506)
v4: Removing PWL point (0.0813108,0.156694)
v4: Removing PWL point (0.0814108,0.173123)
v4: Removing PWL point (0.0815108,0.166175)
v4: Removing PWL point (0.0816108,-0.239326)
v4: Removing PWL point (0.0817108,-0.0504)
v4: Removing PWL point (0.0818108,-0.298474)
v4: Removing PWL point (0.0819108,0.21223)
v4: Removing PWL point (0.0820108,0.43716)
v4: Removing PWL point (0.0821108,0.533059)
v4: Removing PWL point (0.0822108,0.0972641)
v4: Removing PWL point (0.0823108,-0.112982)
v4: Removing PWL point (0.0824108,-0.0599669)
v4: Removing PWL point (0.0825108,-0.364687)
v4: Removing PWL point (0.0826108,0.345354)
v4: Removing PWL point (0.0827108,-0.160511)
v4: Removing PWL point (0.0828108,-0.0139082)
v4: Removing PWL point (0.0829108,0.207824)
v4: Removing PWL point (0.0830108,-0.375004)
v4: Removing PWL point (0.0831108,0.372423)
v4: Removing PWL point (0.0832108,-0.21934)
v4: Removing PWL point (0.0833108,0.0732685)
v4: Removing PWL point (0.0834108,-0.118032)
v4: Removing PWL point (0.0835108,0.0294779)
v4: Removing PWL point (0.0836108,0.269317)
v4: Removing PWL point (0.0837108,-0.157897)
v4: Removing PWL point (0.0838108,0.466486)
v4: Removing PWL point (0.0839108,0.410232)
v4: Removing PWL point (0.0840108,-0.758753)
v4: Removing PWL point (0.0841108,0.198406)
v4: Removing PWL point (0.0842108,0.22271)
v4: Removing PWL point (0.0843108,0.327641)
v4: Removing PWL point (0.0844108,0.739251)
v4: Removing PWL point (0.0845108,-0.0381451)
v4: Removing PWL point (0.0846109,-0.487924)
v4: Removing PWL point (0.0847109,-0.207973)
v4: Removing PWL point (0.0848109,0.235263)
v4: Removing PWL point (0.0849108,0.284712)
v4: Removing PWL point (0.0850108,0.115283)
v4: Removing PWL point (0.0851109,0.0550816)
v4: Removing PWL point (0.0852109,-0.619109)
v4: Removing PWL point (0.0853109,-0.303851)
v4: Removing PWL point (0.0854108,-0.104732)
v4: Removing PWL point (0.0855109,-0.428825)
v4: Removing PWL point (0.0856109,0.468478)
v4: Removing PWL point (0.0857109,0.376293)
v4: Removing PWL point (0.0858109,-0.212115)
v4: Removing PWL point (0.0859109,0.640107)
v4: Removing PWL point (0.0860109,-0.327079)
v4: Removing PWL point (0.0861109,0.455168)
v4: Removing PWL point (0.0862109,-0.279985)
v4: Removing PWL point (0.0863109,0.325293)
v4: Removing PWL point (0.0864109,-0.0895761)
v4: Removing PWL point (0.0865109,0.0259978)
v4: Removing PWL point (0.0866109,-0.503259)
v4: Removing PWL point (0.0867109,-0.0301355)
v4: Removing PWL point (0.0868109,0.223213)
v4: Removing PWL point (0.0869109,-0.271342)
v4: Removing PWL point (0.0870109,-0.26877)
v4: Removing PWL point (0.0871109,0.235809)
v4: Removing PWL point (0.0872109,0.861517)
v4: Removing PWL point (0.0873109,0.270339)
v4: Removing PWL point (0.0874109,0.109193)
v4: Removing PWL point (0.0875109,-0.0438032)
v4: Removing PWL point (0.0876109,0.404508)
v4: Removing PWL point (0.0877109,0.289366)
v4: Removing PWL point (0.0878109,-0.476033)
v4: Removing PWL point (0.0879109,-0.126996)
v4: Removing PWL point (0.0880109,-0.0678753)
v4: Removing PWL point (0.0881109,-0.771734)
v4: Removing PWL point (0.0882109,0.232626)
v4: Removing PWL point (0.0883109,-0.535117)
v4: Removing PWL point (0.0884109,-0.145835)
v4: Removing PWL point (0.0885109,0.465542)
v4: Removing PWL point (0.0886109,0.674421)
v4: Removing PWL point (0.0887109,0.322998)
v4: Removing PWL point (0.0888109,1.0378)
v4: Removing PWL point (0.0889109,-0.451491)
v4: Removing PWL point (0.0890109,-0.0832066)
v4: Removing PWL point (0.0891109,0.172502)
v4: Removing PWL point (0.0892109,-0.185266)
v4: Removing PWL point (0.0893109,-0.128423)
v4: Removing PWL point (0.0894109,-0.794806)
v4: Removing PWL point (0.0895109,-0.0730792)
v4: Removing PWL point (0.0896109,0.0184892)
v4: Removing PWL point (0.0897109,-0.20081)
v4: Removing PWL point (0.0898109,0.00762905)
v4: Removing PWL point (0.0899109,-0.133621)
v4: Removing PWL point (0.0900109,-0.430858)
v4: Removing PWL point (0.0901109,0.132045)
v4: Removing PWL point (0.0902109,-0.873821)
v4: Removing PWL point (0.0903109,0.213382)
v4: Removing PWL point (0.0904109,0.145448)
v4: Removing PWL point (0.0905109,-0.777044)
v4: Removing PWL point (0.0906109,-0.0856617)
v4: Removing PWL point (0.0907109,0.0155732)
v4: Removing PWL point (0.0908109,0.565118)
v4: Removing PWL point (0.0909109,0.518778)
v4: Removing PWL point (0.0910109,0.0430862)
v4: Removing PWL point (0.0911109,0.00727333)
v4: Removing PWL point (0.0912109,-0.156256)
v4: Removing PWL point (0.0913109,-0.626359)
v4: Removing PWL point (0.0914109,0.499081)
v4: Removing PWL point (0.0915109,-0.116554)
v4: Removing PWL point (0.0916109,-0.0618521)
v4: Removing PWL point (0.0917109,-0.0705082)
v4: Removing PWL point (0.0918109,0.350742)
v4: Removing PWL point (0.0919109,-0.210839)
v4: Removing PWL point (0.0920109,0.215733)
v4: Removing PWL point (0.0921109,-0.430669)
v4: Removing PWL point (0.0922109,0.481236)
v4: Removing PWL point (0.0923109,0.0209847)
v4: Removing PWL point (0.0924109,0.152726)
v4: Removing PWL point (0.0925109,-0.217298)
v4: Removing PWL point (0.0926109,-0.692947)
v4: Removing PWL point (0.0927109,-0.0351258)
v4: Removing PWL point (0.0928109,-0.0426106)
v4: Removing PWL point (0.0929109,-0.143985)
v4: Removing PWL point (0.0930109,-0.488743)
v4: Removing PWL point (0.0931109,-0.0436357)
v4: Removing PWL point (0.0932109,-0.0224002)
v4: Removing PWL point (0.0933109,-0.0184275)
v4: Removing PWL point (0.0934109,0.4061)
v4: Removing PWL point (0.0935109,-0.015416)
v4: Removing PWL point (0.0936109,0.0641019)
v4: Removing PWL point (0.0937109,-0.192291)
v4: Removing PWL point (0.0938109,-0.682755)
v4: Removing PWL point (0.0939109,-0.00818403)
v4: Removing PWL point (0.0940109,-0.388541)
v4: Removing PWL point (0.0941109,0.122018)
v4: Removing PWL point (0.0942109,0.237123)
v4: Removing PWL point (0.0943109,0.383047)
v4: Removing PWL point (0.0944109,0.450699)
v4: Removing PWL point (0.0945109,0.059447)
v4: Removing PWL point (0.0946109,0.105587)
v4: Removing PWL point (0.094711,0.126187)
v4: Removing PWL point (0.094811,-0.0636863)
v4: Removing PWL point (0.094911,1.26254)
v4: Removing PWL point (0.0950109,-0.336874)
v4: Removing PWL point (0.0951109,0.745262)
v4: Removing PWL point (0.095211,-0.0475896)
v4: Removing PWL point (0.095311,-0.255717)
v4: Removing PWL point (0.095411,-0.365471)
v4: Removing PWL point (0.095511,-0.0800036)
v4: Removing PWL point (0.095611,-0.299862)
v4: Removing PWL point (0.095711,0.669546)
v4: Removing PWL point (0.095811,-0.467394)
v4: Removing PWL point (0.095911,0.0596151)
v4: Removing PWL point (0.096011,-0.673377)
v4: Removing PWL point (0.096111,0.108347)
v4: Removing PWL point (0.096211,0.705346)
v4: Removing PWL point (0.096311,-0.253153)
v4: Removing PWL point (0.096411,-0.105869)
v4: Removing PWL point (0.096511,-0.388373)
v4: Removing PWL point (0.096611,0.313018)
v4: Removing PWL point (0.096711,-0.536743)
v4: Removing PWL point (0.096811,-0.371762)
v4: Removing PWL point (0.096911,0.157875)
v4: Removing PWL point (0.097011,0.124081)
v4: Removing PWL point (0.097111,0.123098)
v4: Removing PWL point (0.097211,0.505893)
v4: Removing PWL point (0.097311,-0.681296)
v4: Removing PWL point (0.097411,-0.312788)
v4: Removing PWL point (0.097511,-0.0291417)
v4: Removing PWL point (0.097611,-0.141873)
v4: Removing PWL point (0.097711,-0.581846)
v4: Removing PWL point (0.097811,-0.298048)
v4: Removing PWL point (0.097911,0.0206751)
v4: Removing PWL point (0.098011,0.446606)
v4: Removing PWL point (0.098111,0.128406)
v4: Removing PWL point (0.098211,0.303849)
v4: Removing PWL point (0.098311,-0.444875)
v4: Removing PWL point (0.098411,-0.11584)
v4: Removing PWL point (0.098511,-0.35236)
v4: Removing PWL point (0.098611,-0.238438)
v4: Removing PWL point (0.098711,0.56307)
v4: Removing PWL point (0.098811,0.0297566)
v4: Removing PWL point (0.098911,0.32642)
v4: Removing PWL point (0.099011,-0.204134)
v4: Removing PWL point (0.099111,0.363288)
v4: Removing PWL point (0.099211,-0.23961)
v4: Removing PWL point (0.099311,-0.00010255)
v4: Removing PWL point (0.099411,0.701058)
v4: Removing PWL point (0.099511,-0.692828)
v4: Removing PWL point (0.099611,-0.294787)
v4: Removing PWL point (0.099711,-0.301038)
v4: Removing PWL point (0.099811,0.404008)
v4: Removing PWL point (0.099911,-0.642711)
v4: Removing PWL point (0.100011,-0.241137)
v4: Removing PWL point (0.100111,0.592431)
v4: Removing PWL point (0.100211,-0.458182)
v4: Removing PWL point (0.100311,0.267218)
v4: Removing PWL point (0.100411,0.308676)
v4: Removing PWL point (0.100511,-0.537347)
v4: Removing PWL point (0.100611,-0.0282175)
v4: Removing PWL point (0.100711,0.607295)
v4: Removing PWL point (0.100811,-0.58852)
v4: Removing PWL point (0.100911,0.339793)
v4: Removing PWL point (0.101011,0.323089)
v4: Removing PWL point (0.101111,-0.139628)
v4: Removing PWL point (0.101211,0.000618344)
v4: Removing PWL point (0.101311,-0.00701847)
v4: Removing PWL point (0.101411,-0.155831)
v4: Removing PWL point (0.101511,-0.0193791)
v4: Removing PWL point (0.101611,-0.214831)
v4: Removing PWL point (0.101711,0.657311)
v4: Removing PWL point (0.101811,-0.343954)
v4: Removing PWL point (0.101911,-0.348849)
v4: Removing PWL point (0.102011,-0.349466)
v4: Removing PWL point (0.102111,-0.242156)
v4: Removing PWL point (0.102211,-0.493783)
v4: Removing PWL point (0.102311,-0.336024)
v4: Removing PWL point (0.102411,0.297953)
v4: Removing PWL point (0.102511,-0.767814)
v4: Removing PWL point (0.102611,0.277079)
v4: Removing PWL point (0.102711,0.184966)
v4: Removing PWL point (0.102811,0.0101432)
v4: Removing PWL point (0.102911,-0.0630786)
v4: Removing PWL point (0.103011,0.323231)
v4: Removing PWL point (0.103111,-0.305244)
v4: Removing PWL point (0.103211,0.384507)
v4: Removing PWL point (0.103311,0.406106)
v4: Removing PWL point (0.103411,0.034425)
v4: Removing PWL point (0.103511,0.0860214)
v4: Removing PWL point (0.103611,0.102026)
v4: Removing PWL point (0.103711,0.374918)
v4: Removing PWL point (0.103811,0.0192738)
v4: Removing PWL point (0.103911,-0.0885891)
v4: Removing PWL point (0.104011,0.121751)
v4: Removing PWL point (0.104111,0.358596)
v4: Removing PWL point (0.104211,0.155829)
v4: Removing PWL point (0.104311,0.00822926)
v4: Removing PWL point (0.104411,0.119495)
v4: Removing PWL point (0.104511,0.266036)
v4: Removing PWL point (0.104611,-0.32339)
v4: Removing PWL point (0.104711,0.207676)
v4: Removing PWL point (0.104811,-0.937525)
v4: Removing PWL point (0.104911,-0.45345)
v4: Removing PWL point (0.105011,-0.193718)
v4: Removing PWL point (0.105111,0.117488)
v4: Removing PWL point (0.105211,0.442284)
v4: Removing PWL point (0.105311,-0.159797)
v4: Removing PWL point (0.105411,0.748716)
v4: Removing PWL point (0.105511,0.283761)
v4: Removing PWL point (0.105611,-0.228303)
v4: Removing PWL point (0.105711,-0.0224776)
v4: Removing PWL point (0.105811,-0.217617)
v4: Removing PWL point (0.105911,0.336818)
v4: Removing PWL point (0.106011,-0.0260785)
v4: Removing PWL point (0.106111,0.974332)
v4: Removing PWL point (0.106211,-0.21338)
v4: Removing PWL point (0.106311,-0.171278)
v4: Removing PWL point (0.106411,-0.497987)
v4: Removing PWL point (0.106511,-0.185699)
v4: Removing PWL point (0.106611,-0.03744)
v4: Removing PWL point (0.106711,0.137867)
v4: Removing PWL point (0.106811,0.146372)
v4: Removing PWL point (0.106911,0.180444)
v4: Removing PWL point (0.107011,0.285888)
v4: Removing PWL point (0.107111,0.481984)
v4: Removing PWL point (0.107211,-0.280894)
v4: Removing PWL point (0.107311,0.238604)
v4: Removing PWL point (0.107411,0.102945)
v4: Removing PWL point (0.107511,0.280915)
v4: Removing PWL point (0.107611,0.515571)
v4: Removing PWL point (0.107711,0.0459085)
v4: Removing PWL point (0.107811,-0.602313)
v4: Removing PWL point (0.107911,-0.06698)
v4: Removing PWL point (0.108011,-0.071042)
v4: Removing PWL point (0.108111,-0.643718)
v4: Removing PWL point (0.108211,-0.0800805)
v4: Removing PWL point (0.108311,-0.246365)
v4: Removing PWL point (0.108411,0.14774)
v4: Removing PWL point (0.108511,0.0863134)
v4: Removing PWL point (0.108611,-0.164988)
v4: Removing PWL point (0.108711,0.178466)
v4: Removing PWL point (0.108811,-0.161949)
v4: Removing PWL point (0.108911,-0.215036)
v4: Removing PWL point (0.109011,0.660075)
v4: Removing PWL point (0.109111,0.147332)
v4: Removing PWL point (0.109211,-0.479603)
v4: Removing PWL point (0.109311,0.0788937)
v4: Removing PWL point (0.109411,0.0396922)
v4: Removing PWL point (0.109511,0.260352)
v4: Removing PWL point (0.109611,0.0894431)
v4: Removing PWL point (0.109711,-0.67715)
v4: Removing PWL point (0.109811,0.0446921)
v4: Removing PWL point (0.109911,-0.00498417)
v4: Removing PWL point (0.110011,0.0508194)
v4: Removing PWL point (0.110111,-0.447125)
v4: Removing PWL point (0.110211,1.01353)
v4: Removing PWL point (0.110311,-0.227012)
v4: Removing PWL point (0.110411,0.166584)
v4: Removing PWL point (0.110511,0.718498)
v4: Removing PWL point (0.110611,-0.399274)
v4: Removing PWL point (0.110711,0.242976)
v4: Removing PWL point (0.110811,-0.153844)
v4: Removing PWL point (0.110911,-0.191353)
v4: Removing PWL point (0.111011,0.114)
v4: Removing PWL point (0.111111,0.172848)
v4: Removing PWL point (0.111211,-0.203583)
v4: Removing PWL point (0.111311,-0.424329)
v4: Removing PWL point (0.111411,0.297182)
v4: Removing PWL point (0.111511,-0.23636)
v4: Removing PWL point (0.111611,-0.0283061)
v4: Removing PWL point (0.111711,-0.695976)
v4: Removing PWL point (0.111811,-0.0878848)
v4: Removing PWL point (0.111911,0.88035)
v4: Removing PWL point (0.112011,0.494607)
v4: Removing PWL point (0.112111,0.227859)
v4: Removing PWL point (0.112211,0.197877)
v4: Removing PWL point (0.112311,0.341775)
v4: Removing PWL point (0.112411,-0.815439)
v4: Removing PWL point (0.112511,0.466587)
v4: Removing PWL point (0.112611,0.0990106)
v4: Removing PWL point (0.112711,0.419736)
v4: Removing PWL point (0.112811,0.0422237)
v4: Removing PWL point (0.112911,0.00428801)
v4: Removing PWL point (0.113011,-0.0144548)
v4: Removing PWL point (0.113111,-0.340817)
v4: Removing PWL point (0.113211,0.481225)
v4: Removing PWL point (0.113311,-0.465554)
v4: Removing PWL point (0.113411,0.0239163)
v4: Removing PWL point (0.113511,-0.416218)
v4: Removing PWL point (0.113611,0.465604)
v4: Removing PWL point (0.113711,0.312368)
v4: Removing PWL point (0.113811,0.194643)
v4: Removing PWL point (0.113911,-0.298816)
v4: Removing PWL point (0.114011,0.364367)
v4: Removing PWL point (0.114111,0.0943814)
v4: Removing PWL point (0.114211,0.0839636)
v4: Removing PWL point (0.114311,0.282824)
v4: Removing PWL point (0.114411,-0.374125)
v4: Removing PWL point (0.114511,-0.0170534)
v4: Removing PWL point (0.114611,-0.0294236)
v4: Removing PWL point (0.114711,-0.112847)
v4: Removing PWL point (0.114811,0.126732)
v4: Removing PWL point (0.114911,0.379769)
v4: Removing PWL point (0.115011,-0.253938)
v4: Removing PWL point (0.115111,-0.141191)
v4: Removing PWL point (0.115211,0.0777041)
v4: Removing PWL point (0.115311,-0.294267)
v4: Removing PWL point (0.115411,-0.331199)
v4: Removing PWL point (0.115511,0.294125)
v4: Removing PWL point (0.115611,-0.0877207)
v4: Removing PWL point (0.115711,0.123818)
v4: Removing PWL point (0.115811,-0.431746)
v4: Removing PWL point (0.115911,-0.0977024)
v4: Removing PWL point (0.116011,-0.484621)
v4: Removing PWL point (0.116111,0.16578)
v4: Removing PWL point (0.116211,-0.128347)
v4: Removing PWL point (0.116311,-0.232266)
v4: Removing PWL point (0.116411,0.393682)
v4: Removing PWL point (0.116511,0.622323)
v4: Removing PWL point (0.116611,-0.0156118)
v4: Removing PWL point (0.116711,0.354382)
v4: Removing PWL point (0.116811,-0.131686)
v4: Removing PWL point (0.116911,-0.273438)
v4: Removing PWL point (0.117011,0.115957)
v4: Removing PWL point (0.117111,-0.0123683)
v4: Removing PWL point (0.117211,0.0662144)
v4: Removing PWL point (0.117311,-0.426948)
v4: Removing PWL point (0.117411,0.709619)
v4: Removing PWL point (0.117511,0.914256)
v4: Removing PWL point (0.117611,0.0976205)
v4: Removing PWL point (0.117711,-0.366599)
v4: Removing PWL point (0.117811,-0.325913)
v4: Removing PWL point (0.117911,0.595671)
v4: Removing PWL point (0.118011,0.196743)
v4: Removing PWL point (0.118111,0.334972)
v4: Removing PWL point (0.118211,-0.106105)
v4: Removing PWL point (0.118311,-0.0630973)
v4: Removing PWL point (0.118411,0.0713546)
v4: Removing PWL point (0.118511,-0.255151)
v4: Removing PWL point (0.118611,-0.402243)
v4: Removing PWL point (0.118711,0.050023)
v4: Removing PWL point (0.118811,0.316827)
v4: Removing PWL point (0.118911,0.0112928)
v4: Removing PWL point (0.119011,-0.0324731)
v4: Removing PWL point (0.119111,-0.0918418)
v4: Removing PWL point (0.119211,-0.108729)
v4: Removing PWL point (0.119311,0.104489)
v4: Removing PWL point (0.119411,-0.137953)
v4: Removing PWL point (0.119511,-0.357298)
v4: Removing PWL point (0.119611,0.13067)
v4: Removing PWL point (0.119711,0.0940606)
v4: Removing PWL point (0.119811,-0.347387)
v4: Removing PWL point (0.119911,0.0262281)
v4: Removing PWL point (0.120011,0.255981)
v4: Removing PWL point (0.120111,0.0321748)
v4: Removing PWL point (0.120211,0.246577)
v4: Removing PWL point (0.120311,0.279436)
v4: Removing PWL point (0.120411,0.210964)
v4: Removing PWL point (0.120511,-0.110965)
v4: Removing PWL point (0.120611,0.137836)
v4: Removing PWL point (0.120711,-0.311152)
v4: Removing PWL point (0.120811,-0.180846)
v4: Removing PWL point (0.120911,-0.00849443)
v4: Removing PWL point (0.121011,0.360507)
v4: Removing PWL point (0.121111,0.178799)
v4: Removing PWL point (0.121211,0.538131)
v4: Removing PWL point (0.121311,0.248183)
v4: Removing PWL point (0.121411,-0.497933)
v4: Removing PWL point (0.121511,0.550381)
v4: Removing PWL point (0.121611,0.758632)
v4: Removing PWL point (0.121711,-0.635272)
v4: Removing PWL point (0.121811,0.045385)
v4: Removing PWL point (0.121911,-0.415598)
v4: Removing PWL point (0.122011,-0.275557)
v4: Removing PWL point (0.122111,0.245032)
v4: Removing PWL point (0.122211,-0.155878)
v4: Removing PWL point (0.122311,-0.294541)
v4: Removing PWL point (0.122411,-0.356173)
v4: Removing PWL point (0.122511,0.0590706)
v4: Removing PWL point (0.122611,0.43505)
v4: Removing PWL point (0.122711,-0.306244)
v4: Removing PWL point (0.122811,0.252872)
v4: Removing PWL point (0.122911,0.124984)
v4: Removing PWL point (0.123011,-0.381519)
v4: Removing PWL point (0.123111,-0.112641)
v4: Removing PWL point (0.123211,-0.433151)
v4: Removing PWL point (0.123311,-0.454667)
v4: Removing PWL point (0.123411,0.170623)
v4: Removing PWL point (0.123511,-0.780586)
v4: Removing PWL point (0.123611,-0.0408289)
v4: Removing PWL point (0.123711,0.505849)
v4: Removing PWL point (0.123811,-0.134114)
v4: Removing PWL point (0.123911,-0.464347)
v4: Removing PWL point (0.124011,-0.0675184)
v4: Removing PWL point (0.124111,0.0869001)
v4: Removing PWL point (0.124211,0.128215)
v4: Removing PWL point (0.124311,-0.194896)
v4: Removing PWL point (0.124411,0.801723)
v4: Removing PWL point (0.124511,-0.0406754)
v4: Removing PWL point (0.124611,0.0617914)
v4: Removing PWL point (0.124711,0.515563)
v4: Removing PWL point (0.124811,0.0334836)
v4: Removing PWL point (0.124911,-0.301073)
v4: Removing PWL point (0.125011,-0.342919)
v4: Removing PWL point (0.125111,0.144895)
v4: Removing PWL point (0.125211,0.0335515)
v4: Removing PWL point (0.125311,0.131447)
v4: Removing PWL point (0.125411,-0.767481)
v4: Removing PWL point (0.125511,0.0378571)
v4: Removing PWL point (0.125611,0.427687)
v4: Removing PWL point (0.125711,0.280252)
v4: Removing PWL point (0.125811,-0.269291)
v4: Removing PWL point (0.125911,0.0140017)
v4: Removing PWL point (0.126011,-0.0298913)
v4: Removing PWL point (0.126111,0.237291)
v4: Removing PWL point (0.126211,0.17148)
v4: Removing PWL point (0.126311,-0.375141)
v4: Removing PWL point (0.126411,-0.256441)
v4: Removing PWL point (0.126511,0.497239)
v4: Removing PWL point (0.126611,-0.36578)
v4: Removing PWL point (0.126711,-0.138877)
v4: Removing PWL point (0.126811,-0.560574)
v4: Removing PWL point (0.126911,0.446553)
v4: Removing PWL point (0.127011,-0.0263022)
v4: Removing PWL point (0.127111,0.851973)
v4: Removing PWL point (0.127211,0.0540691)
v4: Removing PWL point (0.127311,-0.159617)
v4: Removing PWL point (0.127411,-0.273542)
v4: Removing PWL point (0.127511,-0.201297)
v4: Removing PWL point (0.127611,0.0365444)
v4: Removing PWL point (0.127711,0.929663)
v4: Removing PWL point (0.127811,-0.0626536)
v4: Removing PWL point (0.127911,-0.497899)
v4: Removing PWL point (0.128011,0.775914)
v4: Removing PWL point (0.128111,0.393523)
v4: Removing PWL point (0.128211,0.242143)
v4: Removing PWL point (0.128311,0.279812)
v4: Removing PWL point (0.128411,-0.153105)
v4: Removing PWL point (0.128511,-0.23003)
v4: Removing PWL point (0.128611,-0.12463)
v4: Removing PWL point (0.128711,-0.0523774)
v4: Removing PWL point (0.128811,-0.228632)
v4: Removing PWL point (0.128911,0.130334)
v4: Removing PWL point (0.129011,0.630056)
v4: Removing PWL point (0.129111,-0.00463299)
v4: Removing PWL point (0.129211,0.19907)
v4: Removing PWL point (0.129311,-0.359726)
v4: Removing PWL point (0.129411,-0.212238)
v4: Removing PWL point (0.129511,0.315326)
v4: Removing PWL point (0.129611,-0.295957)
v4: Removing PWL point (0.129711,-0.0279722)
v4: Removing PWL point (0.129811,0.176272)
v4: Removing PWL point (0.129911,0.230595)
v4: Removing PWL point (0.130011,0.0579115)
v4: Removing PWL point (0.130111,0.394726)
v4: Removing PWL point (0.130211,-0.0803308)
v4: Removing PWL point (0.130311,-0.15876)
v4: Removing PWL point (0.130411,-0.0787599)
v4: Removing PWL point (0.130511,0.474175)
v4: Removing PWL point (0.130611,0.510518)
v4: Removing PWL point (0.130711,0.198797)
v4: Removing PWL point (0.130811,0.27213)
v4: Removing PWL point (0.130911,-0.196199)
v4: Removing PWL point (0.131011,0.289377)
v4: Removing PWL point (0.131111,0.379293)
v4: Removing PWL point (0.131211,0.358739)
v4: Removing PWL point (0.131311,-0.176183)
v4: Removing PWL point (0.131411,0.677482)
v4: Removing PWL point (0.131511,0.428119)
v4: Removing PWL point (0.131611,-0.159478)
v4: Removing PWL point (0.131711,-0.346722)
v4: Removing PWL point (0.131811,-0.00250617)
v4: Removing PWL point (0.131911,-0.195973)
v4: Removing PWL point (0.132011,-0.106442)
v4: Removing PWL point (0.132111,0.0434578)
v4: Removing PWL point (0.132211,-0.476799)
v4: Removing PWL point (0.132311,-0.191542)
v4: Removing PWL point (0.132411,-0.0422397)
v4: Removing PWL point (0.132511,-0.17514)
v4: Removing PWL point (0.132611,0.0663524)
v4: Removing PWL point (0.132711,0.0755087)
v4: Removing PWL point (0.132811,0.375433)
v4: Removing PWL point (0.132911,-0.0312906)
v4: Removing PWL point (0.133011,0.21473)
v4: Removing PWL point (0.133111,-0.377536)
v4: Removing PWL point (0.133211,0.486388)
v4: Removing PWL point (0.133311,0.771285)
v4: Removing PWL point (0.133411,-1.00401)
v4: Removing PWL point (0.133511,-0.0466841)
v4: Removing PWL point (0.133611,-0.276866)
v4: Removing PWL point (0.133711,0.054835)
v4: Removing PWL point (0.133811,-0.690464)
v4: Removing PWL point (0.133911,-0.457406)
v4: Removing PWL point (0.134011,-0.353643)
v4: Removing PWL point (0.134111,0.0802922)
v4: Removing PWL point (0.134211,-0.330937)
v4: Removing PWL point (0.134311,0.0137228)
v4: Removing PWL point (0.134411,-0.032514)
v4: Removing PWL point (0.134511,-0.64375)
v4: Removing PWL point (0.134611,-0.0482631)
v4: Removing PWL point (0.134711,-0.295406)
v4: Removing PWL point (0.134811,-0.334537)
v4: Removing PWL point (0.134911,-0.1951)
v4: Removing PWL point (0.135011,0.0395191)
v4: Removing PWL point (0.135111,0.382533)
v4: Removing PWL point (0.135211,-0.136975)
v4: Removing PWL point (0.135311,0.395466)
v4: Removing PWL point (0.135411,-0.186448)
v4: Removing PWL point (0.135511,0.0537082)
v4: Removing PWL point (0.135611,-0.0597821)
v4: Removing PWL point (0.135711,-0.408518)
v4: Removing PWL point (0.135811,0.0250582)
v4: Removing PWL point (0.135911,0.082971)
v4: Removing PWL point (0.136011,-0.338614)
v4: Removing PWL point (0.136111,-0.408621)
v4: Removing PWL point (0.136211,-0.501502)
v4: Removing PWL point (0.136311,0.0943368)
v4: Removing PWL point (0.136411,0.18632)
v4: Removing PWL point (0.136511,0.0666186)
v4: Removing PWL point (0.136611,0.416623)
v4: Removing PWL point (0.136711,-0.168884)
v4: Removing PWL point (0.136811,0.135129)
v4: Removing PWL point (0.136911,-0.0139826)
v4: Removing PWL point (0.137011,0.0332398)
v4: Removing PWL point (0.137111,0.0341581)
v4: Removing PWL point (0.137211,-0.216275)
v4: Removing PWL point (0.137311,0.555796)
v4: Removing PWL point (0.137411,-0.285537)
v4: Removing PWL point (0.137511,-0.289267)
v4: Removing PWL point (0.137611,-0.243235)
v4: Removing PWL point (0.137711,0.380828)
v4: Removing PWL point (0.137811,-0.41544)
v4: Removing PWL point (0.137911,-0.035597)
v4: Removing PWL point (0.138011,0.402512)
v4: Removing PWL point (0.138111,-0.373203)
v4: Removing PWL point (0.138211,-0.0495719)
v4: Removing PWL point (0.138311,0.0230009)
v4: Removing PWL point (0.138411,0.211118)
v4: Removing PWL point (0.138511,-0.530509)
v4: Removing PWL point (0.138611,0.0281645)
v4: Removing PWL point (0.138711,0.537724)
v4: Removing PWL point (0.138811,0.873699)
v4: Removing PWL point (0.138911,-0.00921427)
v4: Removing PWL point (0.139011,-0.383023)
v4: Removing PWL point (0.139111,0.324711)
v4: Removing PWL point (0.139211,0.317409)
v4: Removing PWL point (0.139311,-0.0990994)
v4: Removing PWL point (0.139411,-0.425528)
v4: Removing PWL point (0.139511,0.318737)
v4: Removing PWL point (0.139611,0.059646)
v4: Removing PWL point (0.139711,-0.173106)
v4: Removing PWL point (0.139811,-0.299423)
v4: Removing PWL point (0.139911,-0.100909)
v4: Removing PWL point (0.140011,-0.028812)
v4: Removing PWL point (0.140111,0.140283)
v4: Removing PWL point (0.140211,-0.280882)
v4: Removing PWL point (0.140311,0.110335)
v4: Removing PWL point (0.140411,-0.0766976)
v4: Removing PWL point (0.140511,0.61851)
v4: Removing PWL point (0.140611,-0.125429)
v4: Removing PWL point (0.140711,-0.0368238)
v4: Removing PWL point (0.140811,0.549538)
v4: Removing PWL point (0.140911,0.0108535)
v4: Removing PWL point (0.141011,-0.085169)
v4: Removing PWL point (0.141111,0.247414)
v4: Removing PWL point (0.141211,0.546149)
v4: Removing PWL point (0.141311,0.00569079)
v4: Removing PWL point (0.141411,-0.0763753)
v4: Removing PWL point (0.141511,0.34895)
v4: Removing PWL point (0.141611,-0.499609)
v4: Removing PWL point (0.141711,-0.343553)
v4: Removing PWL point (0.141811,-0.00432982)
v4: Removing PWL point (0.141911,0.365415)
v4: Removing PWL point (0.142011,-0.361165)
v4: Removing PWL point (0.142111,0.0821507)
v4: Removing PWL point (0.142211,-0.0189902)
v4: Removing PWL point (0.142311,0.372459)
v4: Removing PWL point (0.142411,-0.146565)
v4: Removing PWL point (0.142511,-0.120706)
v4: Removing PWL point (0.142611,0.635154)
v4: Removing PWL point (0.142711,0.440642)
v4: Removing PWL point (0.142811,0.426799)
v4: Removing PWL point (0.142911,0.28087)
v4: Removing PWL point (0.143011,0.469386)
v4: Removing PWL point (0.143111,0.261333)
v4: Removing PWL point (0.143211,0.440585)
v4: Removing PWL point (0.143311,0.171789)
v4: Removing PWL point (0.143411,-0.134063)
v4: Removing PWL point (0.143511,-0.0828155)
v4: Removing PWL point (0.143611,-0.421608)
v4: Removing PWL point (0.143711,0.127883)
v4: Removing PWL point (0.143811,0.258941)
v4: Removing PWL point (0.143911,0.237874)
v4: Removing PWL point (0.144011,0.259418)
v4: Removing PWL point (0.144111,0.548585)
v4: Removing PWL point (0.144211,0.0577925)
v4: Removing PWL point (0.144311,-0.0257645)
v4: Removing PWL point (0.144411,-0.448855)
v4: Removing PWL point (0.144511,-0.61848)
v4: Removing PWL point (0.144611,0.329006)
v4: Removing PWL point (0.144711,0.689489)
v4: Removing PWL point (0.144811,0.534536)
v4: Removing PWL point (0.144911,0.494291)
v4: Removing PWL point (0.145011,-0.64713)
v4: Removing PWL point (0.145112,-0.144282)
v4: Removing PWL point (0.145211,-0.326828)
v4: Removing PWL point (0.145311,-0.0364647)
v4: Removing PWL point (0.145411,0.271687)
v4: Removing PWL point (0.145511,0.153262)
v4: Removing PWL point (0.145612,0.468212)
v4: Removing PWL point (0.145711,-0.134724)
v4: Removing PWL point (0.145811,0.00855154)
v4: Removing PWL point (0.145911,-0.49057)
v4: Removing PWL point (0.146011,0.320835)
v4: Removing PWL point (0.146112,0.437168)
v4: Removing PWL point (0.146211,0.00785999)
v4: Removing PWL point (0.146311,-0.567861)
v4: Removing PWL point (0.146411,0.0212699)
v4: Removing PWL point (0.146511,0.108193)
v4: Removing PWL point (0.146612,-0.187536)
v4: Removing PWL point (0.146711,0.332788)
v4: Removing PWL point (0.146811,-0.555442)
v4: Removing PWL point (0.146912,-0.379231)
v4: Removing PWL point (0.147011,-0.348704)
v4: Removing PWL point (0.147112,-0.122696)
v4: Removing PWL point (0.147211,-0.390774)
v4: Removing PWL point (0.147311,-0.206057)
v4: Removing PWL point (0.147412,-0.638889)
v4: Removing PWL point (0.147511,0.0334246)
v4: Removing PWL point (0.147612,0.0778913)
v4: Removing PWL point (0.147711,-0.141304)
v4: Removing PWL point (0.147811,0.128507)
v4: Removing PWL point (0.147912,-0.736262)
v4: Removing PWL point (0.148011,0.143142)
v4: Removing PWL point (0.148112,-0.0754971)
v4: Removing PWL point (0.148211,-0.489622)
v4: Removing PWL point (0.148311,0.125784)
v4: Removing PWL point (0.148412,0.27739)
v4: Removing PWL point (0.148511,0.0990592)
v4: Removing PWL point (0.148611,0.71849)
v4: Removing PWL point (0.148711,-0.205336)
v4: Removing PWL point (0.148811,-0.239305)
v4: Removing PWL point (0.148912,0.111264)
v4: Removing PWL point (0.149011,0.17064)
v4: Removing PWL point (0.149111,-1.2109)
v4: Removing PWL point (0.149211,0.0687874)
v4: Removing PWL point (0.149311,-0.0908398)
v4: Removing PWL point (0.149412,-0.28084)
v4: Removing PWL point (0.149511,-0.512826)
v4: Removing PWL point (0.149611,-0.502642)
v4: Removing PWL point (0.149711,0.331286)
v4: Removing PWL point (0.149811,-0.353099)
v4: Removing PWL point (0.149912,0.95501)
v4: Removing PWL point (0.150011,0.458669)
v4: Removing PWL point (0.150111,0.28562)
v4: Removing PWL point (0.150211,0.217142)
v4: Removing PWL point (0.150311,0.0445552)
v4: Removing PWL point (0.150412,-0.32539)
v4: Removing PWL point (0.150511,0.491151)
v4: Removing PWL point (0.150611,0.0596989)
v4: Removing PWL point (0.150711,0.0127066)
v4: Removing PWL point (0.150811,0.392567)
v4: Removing PWL point (0.150912,-0.28478)
v4: Removing PWL point (0.151011,0.324)
v4: Removing PWL point (0.151111,0.427549)
v4: Removing PWL point (0.151211,0.658064)
v4: Removing PWL point (0.151311,1.09976)
v4: Removing PWL point (0.151412,0.286944)
v4: Removing PWL point (0.151511,0.0587416)
v4: Removing PWL point (0.151611,-0.138764)
v4: Removing PWL point (0.151711,0.178788)
v4: Removing PWL point (0.151811,-0.483874)
v4: Removing PWL point (0.151912,-0.234496)
v4: Removing PWL point (0.152011,-0.365982)
v4: Removing PWL point (0.152111,-0.02427)
v4: Removing PWL point (0.152211,0.291132)
v4: Removing PWL point (0.152311,0.372081)
v4: Removing PWL point (0.152412,0.00585218)
v4: Removing PWL point (0.152511,-0.774469)
v4: Removing PWL point (0.152611,-0.0180437)
v4: Removing PWL point (0.152712,0.0559588)
v4: Removing PWL point (0.152811,0.194211)
v4: Removing PWL point (0.152912,-0.0384014)
v4: Removing PWL point (0.153011,-0.166872)
v4: Removing PWL point (0.153111,0.176532)
v4: Removing PWL point (0.153212,0.278223)
v4: Removing PWL point (0.153311,0.397967)
v4: Removing PWL point (0.153412,-0.215434)
v4: Removing PWL point (0.153511,0.131225)
v4: Removing PWL point (0.153611,0.13553)
v4: Removing PWL point (0.153712,0.156197)
v4: Removing PWL point (0.153811,0.216874)
v4: Removing PWL point (0.153912,-0.218765)
v4: Removing PWL point (0.154011,-0.0576566)
v4: Removing PWL point (0.154111,-0.155459)
v4: Removing PWL point (0.154212,-0.336421)
v4: Removing PWL point (0.154311,0.0552258)
v4: Removing PWL point (0.154411,-0.427262)
v4: Removing PWL point (0.154511,0.212816)
v4: Removing PWL point (0.154611,-0.447046)
v4: Removing PWL point (0.154712,-0.0360003)
v4: Removing PWL point (0.154811,0.020536)
v4: Removing PWL point (0.154911,-0.359774)
v4: Removing PWL point (0.155012,0.116086)
v4: Removing PWL point (0.155112,0.744874)
v4: Removing PWL point (0.155212,-0.769219)
v4: Removing PWL point (0.155312,0.184266)
v4: Removing PWL point (0.155412,0.357015)
v4: Removing PWL point (0.155512,-0.451046)
v4: Removing PWL point (0.155612,0.394668)
v4: Removing PWL point (0.155712,-0.33135)
v4: Removing PWL point (0.155812,-0.581139)
v4: Removing PWL point (0.155912,0.194577)
v4: Removing PWL point (0.156012,0.123283)
v4: Removing PWL point (0.156112,-0.00675458)
v4: Removing PWL point (0.156212,0.560418)
v4: Removing PWL point (0.156312,-0.395733)
v4: Removing PWL point (0.156412,-0.199097)
v4: Removing PWL point (0.156512,0.601086)
v4: Removing PWL point (0.156612,-0.0859956)
v4: Removing PWL point (0.156712,-0.20716)
v4: Removing PWL point (0.156812,-0.00880044)
v4: Removing PWL point (0.156912,-0.352788)
v4: Removing PWL point (0.157012,-0.0891542)
v4: Removing PWL point (0.157112,0.393299)
v4: Removing PWL point (0.157212,0.336197)
v4: Removing PWL point (0.157312,-0.0118134)
v4: Removing PWL point (0.157412,0.244831)
v4: Removing PWL point (0.157512,-0.21614)
v4: Removing PWL point (0.157612,-0.135986)
v4: Removing PWL point (0.157712,0.351355)
v4: Removing PWL point (0.157812,0.0173765)
v4: Removing PWL point (0.157912,-0.291543)
v4: Removing PWL point (0.158012,-0.0882122)
v4: Removing PWL point (0.158112,0.0505752)
v4: Removing PWL point (0.158212,-0.245448)
v4: Removing PWL point (0.158312,0.277506)
v4: Removing PWL point (0.158412,0.467475)
v4: Removing PWL point (0.158512,0.059002)
v4: Removing PWL point (0.158612,0.20531)
v4: Removing PWL point (0.158712,0.563969)
v4: Removing PWL point (0.158812,0.029632)
v4: Removing PWL point (0.158912,-0.347909)
v4: Removing PWL point (0.159012,-0.138527)
v4: Removing PWL point (0.159112,-0.112688)
v4: Removing PWL point (0.159212,-0.634094)
v4: Removing PWL point (0.159312,-0.252377)
v4: Removing PWL point (0.159412,0.346017)
v4: Removing PWL point (0.159512,-0.335476)
v4: Removing PWL point (0.159612,0.122383)
v4: Removing PWL point (0.159712,-0.216355)
v4: Removing PWL point (0.159812,0.0236455)
v4: Removing PWL point (0.159912,0.315288)
v4: Removing PWL point (0.160012,-0.118733)
v4: Removing PWL point (0.160112,0.00578751)
v4: Removing PWL point (0.160212,0.00770485)
v4: Removing PWL point (0.160312,0.481942)
v4: Removing PWL point (0.160412,0.0776804)
v4: Removing PWL point (0.160512,-0.00509884)
v4: Removing PWL point (0.160612,0.610196)
v4: Removing PWL point (0.160712,0.13641)
v4: Removing PWL point (0.160812,0.0900061)
v4: Removing PWL point (0.160912,-0.246051)
v4: Removing PWL point (0.161012,0.114407)
v4: Removing PWL point (0.161112,0.397298)
v4: Removing PWL point (0.161212,-0.195305)
v4: Removing PWL point (0.161312,-0.442831)
v4: Removing PWL point (0.161412,-0.482006)
v4: Removing PWL point (0.161512,0.237965)
v4: Removing PWL point (0.161612,0.0230633)
v4: Removing PWL point (0.161712,0.108373)
v4: Removing PWL point (0.161812,-0.236977)
v4: Removing PWL point (0.161912,0.194243)
v4: Removing PWL point (0.162012,0.48112)
v4: Removing PWL point (0.162112,-0.0192452)
v4: Removing PWL point (0.162212,-0.169108)
v4: Removing PWL point (0.162312,0.329214)
v4: Removing PWL point (0.162412,0.00140921)
v4: Removing PWL point (0.162512,0.15766)
v4: Removing PWL point (0.162612,0.0715129)
v4: Removing PWL point (0.162712,0.143127)
v4: Removing PWL point (0.162812,-0.0858312)
v4: Removing PWL point (0.162912,-0.021517)
v4: Removing PWL point (0.163012,-0.207822)
v4: Removing PWL point (0.163112,0.248486)
v4: Removing PWL point (0.163212,0.0137277)
v4: Removing PWL point (0.163312,0.121034)
v4: Removing PWL point (0.163412,-0.210079)
v4: Removing PWL point (0.163512,-0.13835)
v4: Removing PWL point (0.163612,-0.105574)
v4: Removing PWL point (0.163712,-0.249552)
v4: Removing PWL point (0.163812,0.366239)
v4: Removing PWL point (0.163912,-0.398628)
v4: Removing PWL point (0.164012,0.163386)
v4: Removing PWL point (0.164112,-0.0693221)
v4: Removing PWL point (0.164212,-0.0216701)
v4: Removing PWL point (0.164312,0.468288)
v4: Removing PWL point (0.164412,0.0502441)
v4: Removing PWL point (0.164512,0.120804)
v4: Removing PWL point (0.164612,0.421647)
v4: Removing PWL point (0.164712,0.137132)
v4: Removing PWL point (0.164812,0.104998)
v4: Removing PWL point (0.164912,0.502149)
v4: Removing PWL point (0.165012,-0.150544)
v4: Removing PWL point (0.165112,-0.0651492)
v4: Removing PWL point (0.165212,-1.06116)
v4: Removing PWL point (0.165312,-0.0198637)
v4: Removing PWL point (0.165412,0.570433)
v4: Removing PWL point (0.165512,0.128269)
v4: Removing PWL point (0.165612,0.550022)
v4: Removing PWL point (0.165712,0.28485)
v4: Removing PWL point (0.165812,-0.251435)
v4: Removing PWL point (0.165912,-0.608814)
v4: Removing PWL point (0.166012,0.0184494)
v4: Removing PWL point (0.166112,-0.102738)
v4: Removing PWL point (0.166212,-0.281411)
v4: Removing PWL point (0.166312,-0.030668)
v4: Removing PWL point (0.166412,0.694401)
v4: Removing PWL point (0.166512,-0.387435)
v4: Removing PWL point (0.166612,-0.401253)
v4: Removing PWL point (0.166712,0.922412)
v4: Removing PWL point (0.166812,-0.600461)
v4: Removing PWL point (0.166912,-0.069138)
v4: Removing PWL point (0.167012,0.0353128)
v4: Removing PWL point (0.167112,-0.906181)
v4: Removing PWL point (0.167212,0.140227)
v4: Removing PWL point (0.167312,-0.209127)
v4: Removing PWL point (0.167412,0.262691)
v4: Removing PWL point (0.167512,-0.264592)
v4: Removing PWL point (0.167612,0.11491)
v4: Removing PWL point (0.167712,1.12166)
v4: Removing PWL point (0.167812,-0.257671)
v4: Removing PWL point (0.167912,-0.178945)
v4: Removing PWL point (0.168012,-0.318465)
v4: Removing PWL point (0.168112,0.141163)
v4: Removing PWL point (0.168212,0.427398)
v4: Removing PWL point (0.168312,0.058256)
v4: Removing PWL point (0.168412,0.426098)
v4: Removing PWL point (0.168512,-0.266026)
v4: Removing PWL point (0.168612,-0.0509463)
v4: Removing PWL point (0.168712,0.261122)
v4: Removing PWL point (0.168812,-0.218851)
v4: Removing PWL point (0.168912,0.167985)
v4: Removing PWL point (0.169012,-0.215462)
v4: Removing PWL point (0.169112,0.460145)
v4: Removing PWL point (0.169212,-0.249221)
v4: Removing PWL point (0.169312,-0.25017)
v4: Removing PWL point (0.169412,0.250947)
v4: Removing PWL point (0.169512,0.802833)
v4: Removing PWL point (0.169612,0.553835)
v4: Removing PWL point (0.169712,-0.127891)
v4: Removing PWL point (0.169812,-0.251732)
v4: Removing PWL point (0.169912,0.360988)
v4: Removing PWL point (0.170012,0.340825)
v4: Removing PWL point (0.170112,0.7191)
v4: Removing PWL point (0.170212,-0.113926)
v4: Removing PWL point (0.170312,-0.238465)
v4: Removing PWL point (0.170412,0.365143)
v4: Removing PWL point (0.170512,-0.0887064)
v4: Removing PWL point (0.170612,-0.4731)
v4: Removing PWL point (0.170712,-0.0818523)
v4: Removing PWL point (0.170812,0.182638)
v4: Removing PWL point (0.170912,0.101967)
v4: Removing PWL point (0.171012,0.360583)
v4: Removing PWL point (0.171112,-0.0108582)
v4: Removing PWL point (0.171212,-0.17204)
v4: Removing PWL point (0.171312,0.149818)
v4: Removing PWL point (0.171412,-0.0517013)
v4: Removing PWL point (0.171512,0.2072)
v4: Removing PWL point (0.171612,-0.561618)
v4: Removing PWL point (0.171712,0.105846)
v4: Removing PWL point (0.171812,0.258416)
v4: Removing PWL point (0.171912,-0.470208)
v4: Removing PWL point (0.172012,-0.0335724)
v4: Removing PWL point (0.172112,0.213988)
v4: Removing PWL point (0.172212,-0.147519)
v4: Removing PWL point (0.172312,0.174635)
v4: Removing PWL point (0.172412,0.41746)
v4: Removing PWL point (0.172512,0.0164104)
v4: Removing PWL point (0.172612,0.0752169)
v4: Removing PWL point (0.172712,0.0331339)
v4: Removing PWL point (0.172812,0.0829203)
v4: Removing PWL point (0.172912,0.21046)
v4: Removing PWL point (0.173012,0.322276)
v4: Removing PWL point (0.173112,0.468481)
v4: Removing PWL point (0.173212,0.142967)
v4: Removing PWL point (0.173312,-0.277234)
v4: Removing PWL point (0.173412,-0.569121)
v4: Removing PWL point (0.173512,0.550752)
v4: Removing PWL point (0.173612,0.0221459)
v4: Removing PWL point (0.173712,-0.819852)
v4: Removing PWL point (0.173812,-0.599274)
v4: Removing PWL point (0.173912,0.584975)
v4: Removing PWL point (0.174012,0.051696)
v4: Removing PWL point (0.174112,0.255281)
v4: Removing PWL point (0.174212,-0.314561)
v4: Removing PWL point (0.174312,0.329166)
v4: Removing PWL point (0.174412,0.281146)
v4: Removing PWL point (0.174512,-0.0598144)
v4: Removing PWL point (0.174612,-0.190863)
v4: Removing PWL point (0.174712,0.434751)
v4: Removing PWL point (0.174812,0.0591959)
v4: Removing PWL point (0.174912,-0.0602372)
v4: Removing PWL point (0.175012,0.11135)
v4: Removing PWL point (0.175112,-0.109741)
v4: Removing PWL point (0.175212,1.08309)
v4: Removing PWL point (0.175312,-0.400323)
v4: Removing PWL point (0.175412,-0.190424)
v4: Removing PWL point (0.175512,-0.123023)
v4: Removing PWL point (0.175612,-0.152983)
v4: Removing PWL point (0.175712,0.386319)
v4: Removing PWL point (0.175812,0.249759)
v4: Removing PWL point (0.175912,0.325124)
v4: Removing PWL point (0.176012,-0.237929)
v4: Removing PWL point (0.176112,0.448526)
v4: Removing PWL point (0.176212,0.144217)
v4: Removing PWL point (0.176312,0.717386)
v4: Removing PWL point (0.176412,0.460523)
v4: Removing PWL point (0.176512,0.29968)
v4: Removing PWL point (0.176612,0.298517)
v4: Removing PWL point (0.176712,-0.103885)
v4: Removing PWL point (0.176812,0.135743)
v4: Removing PWL point (0.176912,0.0708759)
[...]
v4: Removing PWL point (0.954419,0.405861)
v4: Removing PWL point (0.954519,-0.16432)
v4: Removing PWL point (0.954619,0.275113)
v4: Removing PWL point (0.954719,-0.664865)
v4: Removing PWL point (0.954819,-0.458509)
v4: Removing PWL point (0.954919,0.25367)
v4: Removing PWL point (0.95502,0.060619)
v4: Removing PWL point (0.95512,0.270939)
v4: Removing PWL point (0.95522,0.28616)
v4: Removing PWL point (0.95532,0.503907)
v4: Removing PWL point (0.95542,0.300155)
v4: Removing PWL point (0.95552,-0.491409)
v4: Removing PWL point (0.95562,0.564856)
v4: Removing PWL point (0.95572,-0.166176)
v4: Removing PWL point (0.95582,0.0382066)
v4: Removing PWL point (0.95592,-0.176519)
v4: Removing PWL point (0.95602,0.0898304)
v4: Removing PWL point (0.95612,0.495296)
v4: Removing PWL point (0.95622,-0.272538)
v4: Removing PWL point (0.95632,-0.180572)
v4: Removing PWL point (0.95642,-0.0333051)
v4: Removing PWL point (0.95652,-0.536606)
v4: Removing PWL point (0.95662,-0.229717)
v4: Removing PWL point (0.95672,-0.495813)
v4: Removing PWL point (0.95682,-0.534018)
v4: Removing PWL point (0.95692,0.72661)
v4: Removing PWL point (0.95702,-0.0337)
v4: Removing PWL point (0.95712,0.242027)
v4: Removing PWL point (0.95722,0.612343)
v4: Removing PWL point (0.95732,0.142238)
v4: Removing PWL point (0.95742,-0.473412)
v4: Removing PWL point (0.95752,0.246757)
v4: Removing PWL point (0.95762,0.119775)
v4: Removing PWL point (0.95772,0.0749796)
v4: Removing PWL point (0.95782,0.584319)
v4: Removing PWL point (0.95792,0.104184)
v4: Removing PWL point (0.95802,-0.0223137)
v4: Removing PWL point (0.95812,0.261137)
v4: Removing PWL point (0.95822,0.200903)
v4: Removing PWL point (0.95832,0.168107)
v4: Removing PWL point (0.95842,0.455149)
v4: Removing PWL point (0.95852,0.428053)
v4: Removing PWL point (0.95862,-0.153305)
v4: Removing PWL point (0.95872,-0.0164281)
v4: Removing PWL point (0.95882,-0.0805592)
v4: Removing PWL point (0.95892,0.337848)
v4: Removing PWL point (0.95902,0.151596)
v4: Removing PWL point (0.95912,-0.439745)
v4: Removing PWL point (0.95922,-0.163374)
v4: Removing PWL point (0.95932,1.40853)
v4: Removing PWL point (0.95942,0.293686)
v4: Removing PWL point (0.95952,0.113888)
v4: Removing PWL point (0.95962,0.53676)
v4: Removing PWL point (0.95972,0.167297)
v4: Removing PWL point (0.95982,-0.100699)
v4: Removing PWL point (0.95992,-0.0103929)
v4: Removing PWL point (0.96002,-0.0341952)
v4: Removing PWL point (0.96012,0.411727)
v4: Removing PWL point (0.96022,0.105978)
v4: Removing PWL point (0.96032,0.0899006)
v4: Removing PWL point (0.96042,-0.593777)
v4: Removing PWL point (0.96052,-0.0588647)
v4: Removing PWL point (0.96062,0.0486982)
v4: Removing PWL point (0.96072,-0.0833663)
v4: Removing PWL point (0.96082,0.0287772)
v4: Removing PWL point (0.96092,0.085975)
v4: Removing PWL point (0.96102,-0.233371)
v4: Removing PWL point (0.96112,-0.566096)
v4: Removing PWL point (0.96122,0.0794293)
v4: Removing PWL point (0.96132,-0.0960403)
v4: Removing PWL point (0.96142,-0.204919)
v4: Removing PWL point (0.96152,-0.267465)
v4: Removing PWL point (0.96162,0.508287)
v4: Removing PWL point (0.96172,0.949468)
v4: Removing PWL point (0.96182,0.279698)
v4: Removing PWL point (0.96192,0.42232)
v4: Removing PWL point (0.96202,0.622769)
v4: Removing PWL point (0.96212,0.342831)
v4: Removing PWL point (0.96222,-0.383324)
v4: Removing PWL point (0.96232,0.139269)
v4: Removing PWL point (0.96242,-0.253227)
v4: Removing PWL point (0.96252,-1.00697)
v4: Removing PWL point (0.96262,-0.180769)
v4: Removing PWL point (0.96272,-0.497196)
v4: Removing PWL point (0.96282,-0.108915)
v4: Removing PWL point (0.96292,-0.0242053)
v4: Removing PWL point (0.96302,0.118044)
v4: Removing PWL point (0.96312,0.259781)
v4: Removing PWL point (0.96322,-0.387303)
v4: Removing PWL point (0.96332,-0.252306)
v4: Removing PWL point (0.96342,-0.193198)
v4: Removing PWL point (0.96352,-0.351933)
v4: Removing PWL point (0.96362,-0.227824)
v4: Removing PWL point (0.96372,-0.403008)
v4: Removing PWL point (0.96382,-0.145113)
v4: Removing PWL point (0.96392,0.33577)
v4: Removing PWL point (0.96402,-0.308092)
v4: Removing PWL point (0.96412,0.246301)
v4: Removing PWL point (0.96422,-0.675844)
v4: Removing PWL point (0.96432,0.55528)
v4: Removing PWL point (0.96442,0.169739)
v4: Removing PWL point (0.96452,-0.0365741)
v4: Removing PWL point (0.96462,-0.530076)
v4: Removing PWL point (0.96472,0.126231)
v4: Removing PWL point (0.96482,0.505784)
v4: Removing PWL point (0.96492,0.114776)
v4: Removing PWL point (0.96502,-0.260343)
v4: Removing PWL point (0.96512,0.00836627)
v4: Removing PWL point (0.96522,-0.112149)
v4: Removing PWL point (0.96532,-0.0258723)
v4: Removing PWL point (0.96542,-0.00871617)
v4: Removing PWL point (0.96552,-0.158055)
v4: Removing PWL point (0.96562,0.0379436)
v4: Removing PWL point (0.96572,0.131155)
v4: Removing PWL point (0.96582,0.619458)
v4: Removing PWL point (0.96592,-0.0324262)
v4: Removing PWL point (0.96602,0.18925)
v4: Removing PWL point (0.96612,-0.259926)
v4: Removing PWL point (0.96622,0.165266)
v4: Removing PWL point (0.96632,0.0884975)
v4: Removing PWL point (0.96642,0.467102)
v4: Removing PWL point (0.96652,-0.484728)
v4: Removing PWL point (0.96662,-0.379509)
v4: Removing PWL point (0.96672,-0.031907)
v4: Removing PWL point (0.96682,0.270153)
v4: Removing PWL point (0.96692,-0.242712)
v4: Removing PWL point (0.96702,-0.515712)
v4: Removing PWL point (0.96712,0.0903013)
v4: Removing PWL point (0.96722,-0.625397)
v4: Removing PWL point (0.96732,0.298687)
v4: Removing PWL point (0.96742,0.522996)
v4: Removing PWL point (0.96752,0.290347)
v4: Removing PWL point (0.96762,0.0472681)
v4: Removing PWL point (0.96772,-0.419043)
v4: Removing PWL point (0.96782,-0.416659)
v4: Removing PWL point (0.96792,-0.241836)
v4: Removing PWL point (0.96802,-0.146595)
v4: Removing PWL point (0.96812,0.365701)
v4: Removing PWL point (0.96822,-0.494751)
v4: Removing PWL point (0.96832,-0.354489)
v4: Removing PWL point (0.96842,0.00712818)
v4: Removing PWL point (0.96852,-0.404458)
v4: Removing PWL point (0.96862,-0.281172)
v4: Removing PWL point (0.96872,-0.348828)
v4: Removing PWL point (0.96882,0.31469)
v4: Removing PWL point (0.96892,0.279431)
v4: Removing PWL point (0.96902,0.168581)
v4: Removing PWL point (0.96912,-0.113159)
v4: Removing PWL point (0.96922,-0.289319)
v4: Removing PWL point (0.96932,-0.584459)
v4: Removing PWL point (0.96942,0.162665)
v4: Removing PWL point (0.96952,-0.271194)
v4: Removing PWL point (0.96962,-0.293733)
v4: Removing PWL point (0.96972,-0.237329)
v4: Removing PWL point (0.96982,0.0237103)
v4: Removing PWL point (0.96992,-0.405604)
v4: Removing PWL point (0.97002,0.169329)
v4: Removing PWL point (0.97012,-0.227341)
v4: Removing PWL point (0.97022,0.303522)
v4: Removing PWL point (0.97032,0.477635)
v4: Removing PWL point (0.97042,-0.22062)
v4: Removing PWL point (0.97052,0.437049)
v4: Removing PWL point (0.97062,0.244286)
v4: Removing PWL point (0.97072,-0.224938)
v4: Removing PWL point (0.97082,-0.613435)
v4: Removing PWL point (0.97092,0.449852)
v4: Removing PWL point (0.97102,0.567029)
v4: Removing PWL point (0.97112,0.238397)
v4: Removing PWL point (0.97122,-0.607135)
v4: Removing PWL point (0.97132,0.289848)
v4: Removing PWL point (0.97142,0.223017)
v4: Removing PWL point (0.97152,0.683437)
v4: Removing PWL point (0.97162,0.025007)
v4: Removing PWL point (0.97172,0.379871)
v4: Removing PWL point (0.97182,0.129827)
v4: Removing PWL point (0.97192,0.282037)
v4: Removing PWL point (0.97202,-0.174735)
v4: Removing PWL point (0.97212,-0.0570621)
v4: Removing PWL point (0.97222,-0.0991026)
v4: Removing PWL point (0.97232,-0.288041)
v4: Removing PWL point (0.97242,0.331631)
v4: Removing PWL point (0.97252,-0.0948011)
v4: Removing PWL point (0.97262,0.836472)
v4: Removing PWL point (0.97272,-0.0733398)
v4: Removing PWL point (0.97282,-0.289144)
v4: Removing PWL point (0.97292,0.102101)
v4: Removing PWL point (0.97302,-0.326663)
v4: Removing PWL point (0.97312,0.154949)
v4: Removing PWL point (0.97322,0.0199718)
v4: Removing PWL point (0.97332,-0.0283435)
v4: Removing PWL point (0.97342,-0.790715)
v4: Removing PWL point (0.97352,0.0142935)
v4: Removing PWL point (0.97362,-0.117173)
v4: Removing PWL point (0.97372,0.540371)
v4: Removing PWL point (0.97382,0.26096)
v4: Removing PWL point (0.97392,-0.287057)
v4: Removing PWL point (0.97402,0.393285)
v4: Removing PWL point (0.97412,-0.078694)
v4: Removing PWL point (0.97422,0.00597061)
v4: Removing PWL point (0.97432,0.026886)
v4: Removing PWL point (0.97442,0.118206)
v4: Removing PWL point (0.97452,0.144307)
v4: Removing PWL point (0.97462,-0.223297)
v4: Removing PWL point (0.97472,-0.0689859)
v4: Removing PWL point (0.97482,0.0847746)
v4: Removing PWL point (0.97492,-0.149291)
v4: Removing PWL point (0.97502,0.652192)
v4: Removing PWL point (0.97512,0.180458)
v4: Removing PWL point (0.97522,0.0452988)
v4: Removing PWL point (0.97532,0.0723465)
v4: Removing PWL point (0.97542,-0.302394)
v4: Removing PWL point (0.97552,0.0224172)
v4: Removing PWL point (0.97562,0.292524)
v4: Removing PWL point (0.97572,-0.569662)
v4: Removing PWL point (0.97582,-0.576109)
v4: Removing PWL point (0.97592,-0.241928)
v4: Removing PWL point (0.97602,-0.29017)
v4: Removing PWL point (0.97612,-0.198227)
v4: Removing PWL point (0.97622,-0.28006)
v4: Removing PWL point (0.97632,-0.469575)
v4: Removing PWL point (0.97642,0.495081)
v4: Removing PWL point (0.97652,-0.0136632)
v4: Removing PWL point (0.97662,0.227815)
v4: Removing PWL point (0.97672,-0.121954)
v4: Removing PWL point (0.97682,-0.0838187)
v4: Removing PWL point (0.97692,0.0528605)
v4: Removing PWL point (0.97702,0.314214)
v4: Removing PWL point (0.97712,-0.0396221)
v4: Removing PWL point (0.97722,-0.427394)
v4: Removing PWL point (0.97732,-0.210058)
v4: Removing PWL point (0.97742,0.0181553)
v4: Removing PWL point (0.97752,-0.0690523)
v4: Removing PWL point (0.97762,0.300639)
v4: Removing PWL point (0.97772,0.246897)
v4: Removing PWL point (0.97782,-0.228467)
v4: Removing PWL point (0.97792,-0.176778)
v4: Removing PWL point (0.97802,0.305325)
v4: Removing PWL point (0.97812,-0.4086)
v4: Removing PWL point (0.97822,-0.0903039)
v4: Removing PWL point (0.97832,0.210649)
v4: Removing PWL point (0.97842,-0.272019)
v4: Removing PWL point (0.97852,-0.44769)
v4: Removing PWL point (0.97862,0.0947632)
v4: Removing PWL point (0.97872,0.199463)
v4: Removing PWL point (0.97882,0.205829)
v4: Removing PWL point (0.97892,0.696944)
v4: Removing PWL point (0.97902,-0.415497)
v4: Removing PWL point (0.97912,-0.229237)
v4: Removing PWL point (0.97922,0.106574)
v4: Removing PWL point (0.97932,0.450259)
v4: Removing PWL point (0.97942,0.385151)
v4: Removing PWL point (0.97952,-0.0197217)
v4: Removing PWL point (0.97962,-0.025432)
v4: Removing PWL point (0.97972,-0.0602204)
v4: Removing PWL point (0.97982,-0.197544)
v4: Removing PWL point (0.97992,-0.633243)
v4: Removing PWL point (0.98002,0.0737858)
v4: Removing PWL point (0.98012,-0.143787)
v4: Removing PWL point (0.98022,0.720315)
v4: Removing PWL point (0.98032,0.313312)
v4: Removing PWL point (0.98042,-0.544569)
v4: Removing PWL point (0.98052,-0.279602)
v4: Removing PWL point (0.98062,-0.154806)
v4: Removing PWL point (0.98072,-0.399703)
v4: Removing PWL point (0.98082,-0.120265)
v4: Removing PWL point (0.98092,0.243097)
v4: Removing PWL point (0.98102,0.25345)
v4: Removing PWL point (0.98112,0.286523)
v4: Removing PWL point (0.98122,0.292857)
v4: Removing PWL point (0.98132,0.0431253)
v4: Removing PWL point (0.98142,0.373599)
v4: Removing PWL point (0.98152,-0.146316)
v4: Removing PWL point (0.98162,-0.206784)
v4: Removing PWL point (0.98172,0.184554)
v4: Removing PWL point (0.98182,-0.0859713)
v4: Removing PWL point (0.98192,0.749172)
v4: Removing PWL point (0.98202,0.166728)
v4: Removing PWL point (0.98212,-0.567494)
v4: Removing PWL point (0.98222,-0.220953)
v4: Removing PWL point (0.98232,-0.0960854)
v4: Removing PWL point (0.98242,0.300247)
v4: Removing PWL point (0.98252,0.675373)
v4: Removing PWL point (0.98262,0.682883)
v4: Removing PWL point (0.98272,-0.0587175)
v4: Removing PWL point (0.98282,0.186582)
v4: Removing PWL point (0.98292,0.225695)
v4: Removing PWL point (0.98302,0.0248043)
v4: Removing PWL point (0.98312,-0.113474)
v4: Removing PWL point (0.98322,-0.222154)
v4: Removing PWL point (0.98332,-0.316425)
v4: Removing PWL point (0.98342,0.334448)
v4: Removing PWL point (0.98352,0.0791704)
v4: Removing PWL point (0.98362,-0.25001)
v4: Removing PWL point (0.98372,0.190846)
v4: Removing PWL point (0.98382,-0.0054555)
v4: Removing PWL point (0.98392,-0.658098)
v4: Removing PWL point (0.98402,0.491725)
v4: Removing PWL point (0.98412,-0.483384)
v4: Removing PWL point (0.98422,-0.173474)
v4: Removing PWL point (0.98432,0.265538)
v4: Removing PWL point (0.98442,-0.254893)
v4: Removing PWL point (0.98452,-0.181312)
v4: Removing PWL point (0.98462,0.106022)
v4: Removing PWL point (0.98472,-0.138417)
v4: Removing PWL point (0.98482,0.303714)
v4: Removing PWL point (0.98492,0.333664)
v4: Removing PWL point (0.98502,0.329776)
v4: Removing PWL point (0.98512,0.630413)
v4: Removing PWL point (0.98522,0.548463)
v4: Removing PWL point (0.98532,-0.480251)
v4: Removing PWL point (0.98542,0.209427)
v4: Removing PWL point (0.98552,0.070084)
v4: Removing PWL point (0.98562,0.445593)
v4: Removing PWL point (0.98572,-0.103348)
v4: Removing PWL point (0.98582,-0.146068)
v4: Removing PWL point (0.98592,0.492701)
v4: Removing PWL point (0.98602,-0.574671)
v4: Removing PWL point (0.98612,-0.0129019)
v4: Removing PWL point (0.98622,-0.194059)
v4: Removing PWL point (0.98632,0.442458)
v4: Removing PWL point (0.98642,-0.132318)
v4: Removing PWL point (0.98652,-0.32076)
v4: Removing PWL point (0.98662,0.185377)
v4: Removing PWL point (0.98672,-0.161687)
v4: Removing PWL point (0.98682,-0.385018)
v4: Removing PWL point (0.98692,0.40907)
v4: Removing PWL point (0.98702,-0.0239901)
v4: Removing PWL point (0.98712,-0.304458)
v4: Removing PWL point (0.98722,0.128627)
v4: Removing PWL point (0.98732,0.833785)
v4: Removing PWL point (0.98742,-0.346155)
v4: Removing PWL point (0.98752,0.227135)
v4: Removing PWL point (0.98762,0.25825)
v4: Removing PWL point (0.98772,0.0358926)
v4: Removing PWL point (0.98782,-0.132517)
v4: Removing PWL point (0.98792,0.395272)
v4: Removing PWL point (0.98802,0.333391)
v4: Removing PWL point (0.98812,-0.0349265)
v4: Removing PWL point (0.98822,0.278396)
v4: Removing PWL point (0.98832,0.110376)
v4: Removing PWL point (0.98842,0.0397784)
v4: Removing PWL point (0.98852,-0.112585)
v4: Removing PWL point (0.98862,-0.531518)
v4: Removing PWL point (0.98872,-0.0135944)
v4: Removing PWL point (0.98882,-0.135569)
v4: Removing PWL point (0.98892,0.147252)
v4: Removing PWL point (0.98902,-0.166139)
v4: Removing PWL point (0.98912,0.203641)
v4: Removing PWL point (0.98922,0.159715)
v4: Removing PWL point (0.98932,-0.131119)
v4: Removing PWL point (0.98942,0.1463)
v4: Removing PWL point (0.98952,0.295584)
v4: Removing PWL point (0.98962,-0.14685)
v4: Removing PWL point (0.98972,0.173814)
v4: Removing PWL point (0.98982,0.002974)
v4: Removing PWL point (0.98992,0.866179)
v4: Removing PWL point (0.99002,0.04714)
v4: Removing PWL point (0.99012,0.306058)
v4: Removing PWL point (0.99022,0.0141726)
v4: Removing PWL point (0.99032,-0.0697809)
v4: Removing PWL point (0.99042,0.28473)
v4: Removing PWL point (0.99052,-0.7718)
v4: Removing PWL point (0.99062,-0.281473)
v4: Removing PWL point (0.99072,-0.474901)
v4: Removing PWL point (0.99082,0.444213)
v4: Removing PWL point (0.99092,0.0403466)
v4: Removing PWL point (0.99102,0.223675)
v4: Removing PWL point (0.99112,0.0641948)
v4: Removing PWL point (0.99122,-0.0743292)
v4: Removing PWL point (0.99132,0.0341424)
v4: Removing PWL point (0.99142,0.0924989)
v4: Removing PWL point (0.99152,0.0306549)
v4: Removing PWL point (0.99162,0.120546)
v4: Removing PWL point (0.99172,-0.184454)
v4: Removing PWL point (0.99182,0.299863)
v4: Removing PWL point (0.99192,-0.0165273)
v4: Removing PWL point (0.99202,-0.496392)
v4: Removing PWL point (0.99212,-0.117022)
v4: Removing PWL point (0.99222,-0.203722)
v4: Removing PWL point (0.99232,0.274199)
v4: Removing PWL point (0.99242,-0.324776)
v4: Removing PWL point (0.99252,-0.32431)
v4: Removing PWL point (0.99262,-0.152086)
v4: Removing PWL point (0.99272,1.10581)
v4: Removing PWL point (0.99282,0.383027)
v4: Removing PWL point (0.99292,-0.127422)
v4: Removing PWL point (0.99302,-0.0705891)
v4: Removing PWL point (0.99312,0.204904)
v4: Removing PWL point (0.99322,-0.312413)
v4: Removing PWL point (0.99332,0.201361)
v4: Removing PWL point (0.99342,0.339118)
v4: Removing PWL point (0.99352,0.488727)
v4: Removing PWL point (0.99362,-0.38159)
v4: Removing PWL point (0.99372,-0.0675791)
v4: Removing PWL point (0.99382,0.408604)
v4: Removing PWL point (0.99392,-0.0421872)
v4: Removing PWL point (0.99402,-0.623049)
v4: Removing PWL point (0.99412,0.298943)
v4: Removing PWL point (0.99422,0.0269316)
v4: Removing PWL point (0.99432,-0.0939241)
v4: Removing PWL point (0.99442,0.0268484)
v4: Removing PWL point (0.99452,-0.510694)
v4: Removing PWL point (0.99462,-0.520774)
v4: Removing PWL point (0.99472,0.182089)
v4: Removing PWL point (0.99482,-0.39798)
v4: Removing PWL point (0.99492,-0.0168381)
v4: Removing PWL point (0.99502,-0.128438)
v4: Removing PWL point (0.99512,-0.422873)
v4: Removing PWL point (0.99522,-0.459552)
v4: Removing PWL point (0.99532,-0.301145)
v4: Removing PWL point (0.99542,0.79007)
v4: Removing PWL point (0.99552,0.314868)
v4: Removing PWL point (0.99562,-0.10718)
v4: Removing PWL point (0.99572,-0.335985)
v4: Removing PWL point (0.99582,0.327933)
v4: Removing PWL point (0.99592,0.0604011)
v4: Removing PWL point (0.99602,0.294314)
v4: Removing PWL point (0.99612,0.0258338)
v4: Removing PWL point (0.99622,0.0625177)
v4: Removing PWL point (0.99632,0.247953)
v4: Removing PWL point (0.99642,-0.244894)
v4: Removing PWL point (0.99652,0.457854)
v4: Removing PWL point (0.99662,0.352062)
v4: Removing PWL point (0.99672,-0.00662965)
v4: Removing PWL point (0.99682,0.243757)
v4: Removing PWL point (0.99692,-0.0572785)
v4: Removing PWL point (0.99702,-0.15985)
v4: Removing PWL point (0.99712,-0.725639)
v4: Removing PWL point (0.99722,-0.352549)
v4: Removing PWL point (0.99732,0.0964536)
v4: Removing PWL point (0.99742,-0.0700102)
v4: Removing PWL point (0.99752,-0.211546)
v4: Removing PWL point (0.99762,-0.0947956)
v4: Removing PWL point (0.99772,0.00202158)
v4: Removing PWL point (0.99782,0.64951)
v4: Removing PWL point (0.99792,-0.966338)
v4: Removing PWL point (0.99802,-0.203038)
v4: Removing PWL point (0.99812,0.205288)
v4: Removing PWL point (0.99822,-0.37692)
v4: Removing PWL point (0.99832,-0.173984)
v4: Removing PWL point (0.99842,-0.561282)
v4: Removing PWL point (0.99852,0.0693414)
v4: Removing PWL point (0.99862,0.117607)
v4: Removing PWL point (0.99872,-0.0944396)
v4: Removing PWL point (0.99882,-0.256644)
v4: Removing PWL point (0.99892,-0.374099)
v4: Removing PWL point (0.99902,-0.343141)
v4: Removing PWL point (0.99912,0.273789)
v4: Removing PWL point (0.99922,0.143851)
v4: Removing PWL point (0.99932,0.416197)
v4: Removing PWL point (0.99942,-0.266937)
v4: Removing PWL point (0.99952,-0.13598)
v4: Removing PWL point (0.99962,0.058736)
v4: Removing PWL point (0.99972,-0.480379)
v4: Removing PWL point (0.99982,0.389656)
v4: Removing PWL point (0.99992,0.200801)
Direct Newton iteration failed to find .op point.  (Use ".option noopiter" to skip.)
Starting Gmin stepping
Gmin = 10
Gmin = 1.07374
Gmin = 0.115292
Gmin = 0.0123794
Gmin = 0.00132923
Gmin = 0.000142725
Gmin = 1.5325e-05
Gmin = 1.6455e-06
Gmin = 1.76685e-07
vernier = 0.5
vernier = 0.666667
Gmin = 6.17442e-08
vernier = 0.888888
vernier = 1
Gmin = 9.33136e-09
Gmin = 1.00195e-09
Gmin = 1.07583e-10
Gmin = 1.15517e-11
Gmin = 1.24035e-12
Gmin = 1.33182e-13
Gmin = 0
Gmin stepping succeeded in finding the operating point.

Total elapsed time: 6.775 seconds.

